Circuit: * C:\Users\You\Documents\Project-Margay\Hardware\Simulation\Draft4.asc

Direct Newton iteration for .op point succeeded.

Date: Wed Sep 12 12:12:09 2018
Total elapsed time: 0.075 seconds.

tnom = 27
temp = 27
method = modified trap
totiter = 2096
traniter = 2082
tranpoints = 1042
accept = 1042
rejected = 0
matrix size = 12
fillins = 0
solver = Normal
Matrix Compiler1:      40 opcodes  0.2/[0.1]/0.1
Matrix Compiler2: 968 bytes object code size  0.1/0.2/[0.1]

