Circuit: * C:\Users\You\Documents\Project-Margay\Hardware\Simulation\Draft3.asc

.OP point found by inspection.

Date: Wed Sep 12 11:20:06 2018
Total elapsed time: 0.109 seconds.

tnom = 27
temp = 27
method = modified trap
totiter = 5897
traniter = 5897
tranpoints = 2325
accept = 2097
rejected = 228
matrix size = 16
fillins = 2
solver = Normal
Matrix Compiler1: 1.10 KB object code size  0.4/0.2/[0.1]
Matrix Compiler2: 1.39 KB object code size  0.1/0.1/[0.0]

