Circuit: * C:\Users\You\Documents\Project-Margay\Hardware\Simulation\USB_Batt_Switch.asc

Direct Newton iteration failed to find .op point.  (Use ".option noopiter" to skip.)
Starting Gmin stepping
Gmin = 10
Gmin = 1.07374
Gmin = 0.115292
Gmin = 0.0123794
Gmin = 0.00132923
Gmin = 0.000142725
Gmin = 1.5325e-005
Gmin = 1.6455e-006
Gmin = 1.76685e-007
Gmin = 1.89714e-008
vernier = 0.5
vernier = 0.25
vernier = 0.125
vernier = 0.0625
vernier = 0.03125
Gmin = 7.77068e-009
vernier = 0.015625
vernier = 0.0078125
vernier = 0.00390625
vernier = 0.00195313
vernier = 0.00260417
Gmin = 7.74669e-009
vernier = 0.00347222
Gmin = 7.68809e-009
vernier = 0.00462963
vernier = 0.00617283
Gmin = 7.59309e-009
vernier = 0.00823044
vernier = 0.0109739
Gmin = 7.44498e-009
vernier = 0.0146319
Gmin = 7.21084e-009
vernier = 0.0195092
vernier = 0.0260122
Gmin = 6.84347e-009
vernier = 0.034683
vernier = 0.046244
Gmin = 6.30003e-009
vernier = 0.0616586
Gmin = 5.51017e-009
vernier = 0.0822114
vernier = 0.109615
Gmin = 4.42879e-009
vernier = 0.146154
vernier = 0.194871
Gmin = 3.13972e-009
vernier = 0.259828
Gmin = 1.80691e-009
vernier = 0.346438
vernier = 0.461917
Gmin = 7.42641e-010
vernier = 0.615889
vernier = 0.821185
Gmin = 1.87987e-010
vernier = 1
Gmin = 2.42164e-011
Gmin = 2.60021e-012
Gmin = 2.79196e-013
Gmin = 0
Gmin stepping succeeded in finding the operating point.

Heightened Def Con from 0.0135592 ++++++++++++++++++++to 0.0135592
Heightened Def Con from 0.0135592 ++++++++++++++++++++to 0.0135592
Heightened Def Con from 0.0135592 ++++++++++++++++++++to 0.0135592
Heightened Def Con from 0.0135592 ++++++++++++++++++++to 0.0135592
Heightened Def Con from 0.0135592 ++++++++++++++++++++to 0.0135592
Heightened Def Con from 0.0135592 ++++++++++++++++++++to 0.0135592
Heightened Def Con from 0.0135592 ++++++++++++++++++++to 0.0135592
Heightened Def Con from 0.0135592 ++++++++++++++++++++to 0.0135592
Heightened Def Con from 0.0135592 ++++++++++++++++++++to 0.0135592
Heightened Def Con from 0.0135592 ++++++++++++++++++++to 0.0135592
Heightened Def Con from 0.0135592 ++++++++++++++++++++to 0.0135592
Heightened Def Con from 0.0135592 ++++++++++++++++++++to 0.0135592
Heightened Def Con from 0.0135592 ++++++++++++++++++++to 0.0135592
Heightened Def Con from 0.0135592 ++++++++++++++++++++to 0.0135592
Heightened Def Con from 0.0135592 ++++++++++++++++++++to 0.0135592
Heightened Def Con from 0.0135592 ++++++++++++++++++++to 0.0135592
Heightened Def Con from 0.0135592 ++++++++++++++++++++to 0.0135592
Heightened Def Con from 0.0135592 ++++++++++++++++++++to 0.0135592
Heightened Def Con from 0.0135592 ++++++++++++++++++++to 0.0135592
Heightened Def Con from 0.0135592 ++++++++++++++++++++to 0.0135592
Heightened Def Con from 0.0135592 ++++++++++++++++++++to 0.0135592
Heightened Def Con from 0.0135592 ++++++++++++++++++++to 0.0135592
Heightened Def Con from 0.0135592 ++++++++++++++++++++to 0.0135592
Heightened Def Con from 0.0135592 ++++++++++++++++++++to 0.0135592
Heightened Def Con from 0.0135592 ++++++++++++++++++++to 0.0135592
Heightened Def Con from 0.0135592 ++++++++++++++++++++to 0.0135592
Heightened Def Con from 0.0135592 ++++++++++++++++++++to 0.0135592
Heightened Def Con from 0.0135592 ++++++++++++++++++++to 0.0135592
Heightened Def Con from 0.0135592 ++++++++++++++++++++to 0.0135592
Heightened Def Con from 0.0135592 ++++++++++++++++++++to 0.0135592
Heightened Def Con from 0.0135592 ++++++++++++++++++++to 0.0135592
Heightened Def Con from 0.0135592 ++++++++++++++++++++to 0.0135592
Heightened Def Con from 0.0135592 ++++++++++++++++++++to 0.0135592
Heightened Def Con from 0.0135592 ++++++++++++++++++++to 0.0135592
Heightened Def Con from 0.0135592 ++++++++++++++++++++to 0.0135592
Heightened Def Con from 0.0135592 ++++++++++++++++++++to 0.0135592
Heightened Def Con from 0.0135592 ++++++++++++++++++++to 0.0135592
Heightened Def Con from 0.0135592 ++++++++++++++++++++to 0.0135592
Heightened Def Con from 0.0135592 ++++++++++++++++++++to 0.0135592
Heightened Def Con from 0.0135592 ++++++++++++++++++++to 0.0135592
Heightened Def Con from 0.0135592 ++++++++++++++++++++to 0.0135592
Heightened Def Con from 0.0135592 ++++++++++++++++++++to 0.0135592
Heightened Def Con from 0.0135592 ++++++++++++++++++++to 0.0135592
Heightened Def Con from 0.0135592 ++++++++++++++++++++to 0.0135592
Heightened Def Con from 0.0135592 ++++++++++++++++++++to 0.0135592
Heightened Def Con from 0.0135592 ++++++++++++++++++++to 0.0135592
Heightened Def Con from 0.0135592 ++++++++++++++++++++to 0.0135592
Heightened Def Con from 0.0135592 ++++++++++++++++++++to 0.0135592
Heightened Def Con from 0.0135592 ++++++++++++++++++++to 0.0135592
Heightened Def Con from 0.0135592 ++++++++++++++++++++to 0.0135592
Heightened Def Con from 0.0135592 ++++++++++++++++++++to 0.0135592
Heightened Def Con from 0.0135592 ++++++++++++++++++++to 0.0135592
Heightened Def Con from 0.0135592 ++++++++++++++++++++to 0.0135592
Heightened Def Con from 0.0135592 ++++++++++++++++++++to 0.0135592
Heightened Def Con from 0.0135592 ++++++++++++++++++++to 0.0135592
Heightened Def Con from 0.0135592 ++++++++++++++++++++to 0.0135592
Heightened Def Con from 0.0135592 ++++++++++++++++++++to 0.0135592
Heightened Def Con from 0.0135592 ++++++++++++++++++++to 0.0135592
Heightened Def Con from 0.0135592 ++++++++++++++++++++to 0.0135592
Heightened Def Con from 0.0135592 ++++++++++++++++++++to 0.0135592
Heightened Def Con from 0.0135592 ++++++++++++++++++++to 0.0135592
Heightened Def Con from 0.0135592 ++++++++++++++++++++to 0.0135592
Heightened Def Con from 0.0135592 ++++++++++++++++++++to 0.0135592
Heightened Def Con from 0.0135592 ++++++++++++++++++++to 0.0135592
Heightened Def Con from 0.0135592 ++++++++++++++++++++to 0.0135592
Heightened Def Con from 0.0135592 ++++++++++++++++++++to 0.0135592
Heightened Def Con from 0.0135592 ++++++++++++++++++++to 0.0135592
Heightened Def Con from 0.0135592 ++++++++++++++++++++to 0.0135592
Heightened Def Con from 0.0135592 ++++++++++++++++++++to 0.0135592
Heightened Def Con from 0.0135592 ++++++++++++++++++++to 0.0135592
Heightened Def Con from 0.0135592 ++++++++++++++++++++to 0.0135592
Heightened Def Con from 0.0135592 ++++++++++++++++++++to 0.0135592
Heightened Def Con from 0.0135592 ++++++++++++++++++++to 0.0135592
Heightened Def Con from 0.0135592 ++++++++++++++++++++to 0.0135592
Heightened Def Con from 0.0135592 ++++++++++++++++++++to 0.0135592
Heightened Def Con from 0.0135592 ++++++++++++++++++++to 0.0135592
Heightened Def Con from 0.0135592 ++++++++++++++++++++to 0.0135592
Heightened Def Con from 0.0135592 ++++++++++++++++++++to 0.0135592
Heightened Def Con from 0.0135592 ++++++++++++++++++++to 0.0135592
Heightened Def Con from 0.0135592 ++++++++++++++++++++to 0.0135592
Heightened Def Con from 0.0135592 ++++++++++++++++++++to 0.0135592
Heightened Def Con from 0.0135592 ++++++++++++++++++++to 0.0135592
Heightened Def Con from 0.0135592 ++++++++++++++++++++to 0.0135592
Heightened Def Con from 0.0135592 ++++++++++++++++++++to 0.0135592
Heightened Def Con from 0.0135592 ++++++++++++++++++++to 0.0135592
Heightened Def Con from 0.0135592 ++++++++++++++++++++to 0.0135592
Heightened Def Con from 0.0135592 ++++++++++++++++++++to 0.0135592
Heightened Def Con from 0.0135592 ++++++++++++++++++++to 0.0135592
Heightened Def Con from 0.0135592 ++++++++++++++++++++to 0.0135592
Heightened Def Con from 0.0135592 ++++++++++++++++++++to 0.0135592
Heightened Def Con from 0.0135592 ++++++++++++++++++++to 0.0135592
Heightened Def Con from 0.0135592 ++++++++++++++++++++to 0.0135592
Heightened Def Con from 0.0135592 ++++++++++++++++++++to 0.0135592
Heightened Def Con from 0.0135592 ++++++++++++++++++++to 0.0135592
Heightened Def Con from 0.0135592 ++++++++++++++++++++to 0.0135592
Heightened Def Con from 0.0135592 ++++++++++++++++++++to 0.0135592
Heightened Def Con from 0.0135592 ++++++++++++++++++++to 0.0135592
Heightened Def Con from 0.0135592 ++++++++++++++++++++to 0.0135592
Heightened Def Con from 0.0135592 ++++++++++++++++++++to 0.0135592
Heightened Def Con from 0.0135592 ++++++++++++++++++++to 0.0135592
Heightened Def Con from 0.0135592 ++++++++++++++++++++to 0.0135592
Heightened Def Con from 0.0135592 ++++++++++++++++++++to 0.0135592
Heightened Def Con from 0.0135592 ++++++++++++++++++++to 0.0135592
Heightened Def Con from 0.0135592 ++++++++++++++++++++to 0.0135592
Heightened Def Con from 0.0135592 ++++++++++++++++++++to 0.0135592
Heightened Def Con from 0.0135592 ++++++++++++++++++++to 0.0135592
Heightened Def Con from 0.0135592 ++++++++++++++++++++to 0.0135592
Heightened Def Con from 0.0135592 ++++++++++++++++++++to 0.0135592
Heightened Def Con from 0.0135592 ++++++++++++++++++++to 0.0135592
Heightened Def Con from 0.0135592 ++++++++++++++++++++to 0.0135592
Heightened Def Con from 0.0135592 ++++++++++++++++++++to 0.0135592
Heightened Def Con from 0.0135592 ++++++++++++++++++++to 0.0135592
Heightened Def Con from 0.0135592 ++++++++++++++++++++to 0.0135592
Heightened Def Con from 0.0135592 ++++++++++++++++++++to 0.0135592
Heightened Def Con from 0.0135592 ++++++++++++++++++++to 0.0135592
Heightened Def Con from 0.0135592 ++++++++++++++++++++to 0.0135592
Heightened Def Con from 0.0135592 ++++++++++++++++++++to 0.0135592
Heightened Def Con from 0.0135592 ++++++++++++++++++++to 0.0135592
Heightened Def Con from 0.0135592 ++++++++++++++++++++to 0.0135592
Heightened Def Con from 0.0135592 ++++++++++++++++++++to 0.0135592
Heightened Def Con from 0.0135592 ++++++++++++++++++++to 0.0135592
Heightened Def Con from 0.0135592 ++++++++++++++++++++to 0.0135592
Heightened Def Con from 0.0135592 ++++++++++++++++++++to 0.0135592
Heightened Def Con from 0.0135592 ++++++++++++++++++++to 0.0135592
Heightened Def Con from 0.0135592 ++++++++++++++++++++to 0.0135592
Heightened Def Con from 0.0135592 ++++++++++++++++++++to 0.0135592
Heightened Def Con from 0.0135592 ++++++++++++++++++++to 0.0135592
Heightened Def Con from 0.0135592 ++++++++++++++++++++to 0.0135592
Heightened Def Con from 0.0135592 ++++++++++++++++++++to 0.0135592
Heightened Def Con from 0.0135592 ++++++++++++++++++++to 0.0135592
Heightened Def Con from 0.0135592 ++++++++++++++++++++to 0.0135592
Heightened Def Con from 0.0135592 ++++++++++++++++++++to 0.0135592
Heightened Def Con from 0.0135592 ++++++++++++++++++++to 0.0135592
Heightened Def Con from 0.0135592 ++++++++++++++++++++to 0.0135592
Heightened Def Con from 0.0135592 ++++++++++++++++++++to 0.0135592
Heightened Def Con from 0.0135592 ++++++++++++++++++++to 0.0135592
Heightened Def Con from 0.0135592 ++++++++++++++++++++to 0.0135592
Heightened Def Con from 0.0135592 ++++++++++++++++++++to 0.0135592
Heightened Def Con from 0.0135592 ++++++++++++++++++++to 0.0135592
Heightened Def Con from 0.0135592 ++++++++++++++++++++to 0.0135592
Heightened Def Con from 0.0135592 ++++++++++++++++++++to 0.0135592
Heightened Def Con from 0.0135592 ++++++++++++++++++++to 0.0135592
Heightened Def Con from 0.0135592 ++++++++++++++++++++to 0.0135592
Heightened Def Con from 0.0135592 ++++++++++++++++++++to 0.0135592
Heightened Def Con from 0.0135592 ++++++++++++++++++++to 0.0135592
Heightened Def Con from 0.0135592 ++++++++++++++++++++to 0.0135592
Heightened Def Con from 0.0135592 ++++++++++++++++++++to 0.0135592
Heightened Def Con from 0.0135592 ++++++++++++++++++++to 0.0135592
Heightened Def Con from 0.0135592 ++++++++++++++++++++to 0.0135592
Heightened Def Con from 0.0135592 ++++++++++++++++++++to 0.0135592
Heightened Def Con from 0.0135592 ++++++++++++++++++++to 0.0135592
Heightened Def Con from 0.0135592 ++++++++++++++++++++to 0.0135592
Heightened Def Con from 0.0135592 ++++++++++++++++++++to 0.0135592
Heightened Def Con from 0.0135592 ++++++++++++++++++++to 0.0135592
Heightened Def Con from 0.0135592 ++++++++++++++++++++to 0.0135592
Heightened Def Con from 0.0135592 ++++++++++++++++++++to 0.0135592
Heightened Def Con from 0.0135592 ++++++++++++++++++++to 0.0135592
Heightened Def Con from 0.0135592 ++++++++++++++++++++to 0.0135592
Heightened Def Con from 0.0135592 ++++++++++++++++++++to 0.0135592
Heightened Def Con from 0.0135592 ++++++++++++++++++++to 0.0135592
Heightened Def Con from 0.0135592 ++++++++++++++++++++to 0.0135592
Heightened Def Con from 0.0135592 ++++++++++++++++++++to 0.0135592
Heightened Def Con from 0.0135592 ++++++++++++++++++++to 0.0135592
Heightened Def Con from 0.0135592 ++++++++++++++++++++to 0.0135592
Heightened Def Con from 0.0135592 ++++++++++++++++++++to 0.0135592
Heightened Def Con from 0.0135592 ++++++++++++++++++++to 0.0135592
Heightened Def Con from 0.0135592 ++++++++++++++++++++to 0.0135592
Heightened Def Con from 0.0135592 ++++++++++++++++++++to 0.0135592
Heightened Def Con from 0.0135592 ++++++++++++++++++++to 0.0135592
Heightened Def Con from 0.0135592 ++++++++++++++++++++to 0.0135592
Heightened Def Con from 0.0135592 ++++++++++++++++++++to 0.0135592
Heightened Def Con from 0.0135592 ++++++++++++++++++++to 0.0135592
Heightened Def Con from 0.0135592 ++++++++++++++++++++to 0.0135592
Heightened Def Con from 0.0135592 ++++++++++++++++++++to 0.0135592
Heightened Def Con from 0.0135592 ++++++++++++++++++++to 0.0135592
Heightened Def Con from 0.0135592 ++++++++++++++++++++to 0.0135592
Heightened Def Con from 0.0135592 ++++++++++++++++++++to 0.0135592
Heightened Def Con from 0.0135592 ++++++++++++++++++++to 0.0135592
Heightened Def Con from 0.0135592 ++++++++++++++++++++to 0.0135592
Heightened Def Con from 0.0135592 ++++++++++++++++++++to 0.0135592
Heightened Def Con from 0.0135592 ++++++++++++++++++++to 0.0135592
Heightened Def Con from 0.0135592 ++++++++++++++++++++to 0.0135592
Heightened Def Con from 0.0135592 ++++++++++++++++++++to 0.0135592
Heightened Def Con from 0.0135592 ++++++++++++++++++++to 0.0135592
Heightened Def Con from 0.0135592 ++++++++++++++++++++to 0.0135592
Heightened Def Con from 0.0135592 ++++++++++++++++++++to 0.0135592
Heightened Def Con from 0.0135592 ++++++++++++++++++++to 0.0135592
Heightened Def Con from 0.0135592 ++++++++++++++++++++to 0.0135592
Heightened Def Con from 0.0135592 ++++++++++++++++++++to 0.0135592
Heightened Def Con from 0.0135592 ++++++++++++++++++++to 0.0135592
Heightened Def Con from 0.0135592 ++++++++++++++++++++to 0.0135592
Heightened Def Con from 0.0135592 ++++++++++++++++++++to 0.0135592
Heightened Def Con from 0.0135592 ++++++++++++++++++++to 0.0135592
Heightened Def Con from 0.0135592 ++++++++++++++++++++to 0.0135592
Heightened Def Con from 0.0135592 ++++++++++++++++++++to 0.0135592
Heightened Def Con from 0.0135592 ++++++++++++++++++++to 0.0135592
Heightened Def Con from 0.0135592 ++++++++++++++++++++to 0.0135592
Heightened Def Con from 0.0135592 ++++++++++++++++++++to 0.0135592
Heightened Def Con from 0.0135592 ++++++++++++++++++++to 0.0135592
Heightened Def Con from 0.0135592 ++++++++++++++++++++to 0.0135592
Heightened Def Con from 0.0135592 ++++++++++++++++++++to 0.0135592
Heightened Def Con from 0.0135592 ++++++++++++++++++++to 0.0135592
Heightened Def Con from 0.0135592 ++++++++++++++++++++to 0.0135592
Heightened Def Con from 0.0135592 ++++++++++++++++++++to 0.0135592
Heightened Def Con from 0.0135592 ++++++++++++++++++++to 0.0135592
Heightened Def Con from 0.0135592 ++++++++++++++++++++to 0.0135592
Heightened Def Con from 0.0135592 ++++++++++++++++++++to 0.0135592
Heightened Def Con from 0.0135592 ++++++++++++++++++++to 0.0135592
Heightened Def Con from 0.0135592 ++++++++++++++++++++to 0.0135592
Heightened Def Con from 0.0135592 ++++++++++++++++++++to 0.0135592
Heightened Def Con from 0.0135592 ++++++++++++++++++++to 0.0135592
Heightened Def Con from 0.0135592 ++++++++++++++++++++to 0.0135592
Heightened Def Con from 0.0135592 ++++++++++++++++++++to 0.0135592
Heightened Def Con from 0.0135592 ++++++++++++++++++++to 0.0135592
Heightened Def Con from 0.0135592 ++++++++++++++++++++to 0.0135592
Heightened Def Con from 0.0135592 ++++++++++++++++++++to 0.0135592
Heightened Def Con from 0.0135592 ++++++++++++++++++++to 0.0135592
Heightened Def Con from 0.0135592 ++++++++++++++++++++to 0.0135592
Heightened Def Con from 0.0135592 ++++++++++++++++++++to 0.0135592
Heightened Def Con from 0.0135592 ++++++++++++++++++++to 0.0135592
Heightened Def Con from 0.0135592 ++++++++++++++++++++to 0.0135592
Heightened Def Con from 0.0135592 ++++++++++++++++++++to 0.0135592
Heightened Def Con from 0.0135592 ++++++++++++++++++++to 0.0135592
Heightened Def Con from 0.0135592 ++++++++++++++++++++to 0.0135592
Heightened Def Con from 0.0135592 ++++++++++++++++++++to 0.0135592
Heightened Def Con from 0.0135592 ++++++++++++++++++++to 0.0135592
Heightened Def Con from 0.0135592 ++++++++++++++++++++to 0.0135592
Heightened Def Con from 0.0135592 ++++++++++++++++++++to 0.0135592
Heightened Def Con from 0.0135592 ++++++++++++++++++++to 0.0135592
Heightened Def Con from 0.0135592 ++++++++++++++++++++to 0.0135592
Heightened Def Con from 0.0135592 ++++++++++++++++++++to 0.0135592
Heightened Def Con from 0.0135592 ++++++++++++++++++++to 0.0135592
Heightened Def Con from 0.0135592 ++++++++++++++++++++to 0.0135592
Heightened Def Con from 0.0135592 ++++++++++++++++++++to 0.0135592
Heightened Def Con from 0.0135592 ++++++++++++++++++++to 0.0135592
Heightened Def Con from 0.0135592 ++++++++++++++++++++to 0.0135592
Heightened Def Con from 0.0135592 ++++++++++++++++++++to 0.0135592
Heightened Def Con from 0.0135592 ++++++++++++++++++++to 0.0135592
Heightened Def Con from 0.0135592 ++++++++++++++++++++to 0.0135592
Heightened Def Con from 0.0135592 ++++++++++++++++++++to 0.0135592
Heightened Def Con from 0.0135592 ++++++++++++++++++++to 0.0135592
Heightened Def Con from 0.0135592 ++++++++++++++++++++to 0.0135592
Heightened Def Con from 0.0135592 ++++++++++++++++++++to 0.0135592
Heightened Def Con from 0.0135592 ++++++++++++++++++++to 0.0135592
Heightened Def Con from 0.0135592 ++++++++++++++++++++to 0.0135592
Heightened Def Con from 0.0135592 ++++++++++++++++++++to 0.0135592
Heightened Def Con from 0.0135592 ++++++++++++++++++++to 0.0135592
Heightened Def Con from 0.0135592 ++++++++++++++++++++to 0.0135592
Heightened Def Con from 0.0135592 ++++++++++++++++++++to 0.0135592
Heightened Def Con from 0.0135592 ++++++++++++++++++++to 0.0135592
Heightened Def Con from 0.0135592 ++++++++++++++++++++to 0.0135592
Heightened Def Con from 0.0135592 ++++++++++++++++++++to 0.0135592
Heightened Def Con from 0.0135592 ++++++++++++++++++++to 0.0135592
Heightened Def Con from 0.0135592 ++++++++++++++++++++to 0.0135592
Heightened Def Con from 0.0135592 ++++++++++++++++++++to 0.0135592
Heightened Def Con from 0.0135592 ++++++++++++++++++++to 0.0135592
Heightened Def Con from 0.0135592 ++++++++++++++++++++to 0.0135592
Heightened Def Con from 0.0135592 ++++++++++++++++++++to 0.0135592
Heightened Def Con from 0.0135592 ++++++++++++++++++++to 0.0135592
Heightened Def Con from 0.0135592 ++++++++++++++++++++to 0.0135592
Heightened Def Con from 0.0135592 ++++++++++++++++++++to 0.0135592
Heightened Def Con from 0.0135592 ++++++++++++++++++++to 0.0135592
Heightened Def Con from 0.0135592 ++++++++++++++++++++to 0.0135592
Heightened Def Con from 0.0135592 ++++++++++++++++++++to 0.0135592
Heightened Def Con from 0.0135592 ++++++++++++++++++++to 0.0135592
Heightened Def Con from 0.0135592 ++++++++++++++++++++to 0.0135592
Heightened Def Con from 0.0135592 ++++++++++++++++++++to 0.0135592
Heightened Def Con from 0.0135592 ++++++++++++++++++++to 0.0135592
Heightened Def Con from 0.0135592 ++++++++++++++++++++to 0.0135592
Heightened Def Con from 0.0135592 ++++++++++++++++++++to 0.0135592
Heightened Def Con from 0.0135592 ++++++++++++++++++++to 0.0135592
Heightened Def Con from 0.0135592 ++++++++++++++++++++to 0.0135592
Heightened Def Con from 0.0135592 ++++++++++++++++++++to 0.0135592
Heightened Def Con from 0.0135592 ++++++++++++++++++++to 0.0135592
Heightened Def Con from 0.0135592 ++++++++++++++++++++to 0.0135592
Heightened Def Con from 0.0135592 ++++++++++++++++++++to 0.0135592
Heightened Def Con from 0.0135592 ++++++++++++++++++++to 0.0135592
Heightened Def Con from 0.0135592 ++++++++++++++++++++to 0.0135592
Heightened Def Con from 0.0135592 ++++++++++++++++++++to 0.0135592
Heightened Def Con from 0.0135592 ++++++++++++++++++++to 0.0135592
Heightened Def Con from 0.0135592 ++++++++++++++++++++to 0.0135592
Heightened Def Con from 0.0135592 ++++++++++++++++++++to 0.0135592
Heightened Def Con from 0.0135592 ++++++++++++++++++++to 0.0135592
Heightened Def Con from 0.0135592 ++++++++++++++++++++to 0.0135592
Heightened Def Con from 0.0135592 ++++++++++++++++++++to 0.0135592
Heightened Def Con from 0.0135592 ++++++++++++++++++++to 0.0135592
Heightened Def Con from 0.0135592 ++++++++++++++++++++to 0.0135592
Heightened Def Con from 0.0135592 ++++++++++++++++++++to 0.0135592
Heightened Def Con from 0.0135592 ++++++++++++++++++++to 0.0135592
Heightened Def Con from 0.0135592 ++++++++++++++++++++to 0.0135592
Heightened Def Con from 0.0135592 ++++++++++++++++++++to 0.0135592
Heightened Def Con from 0.0135592 ++++++++++++++++++++to 0.0135592
Heightened Def Con from 0.0135592 ++++++++++++++++++++to 0.0135592
Heightened Def Con from 0.0135592 ++++++++++++++++++++to 0.0135592
Heightened Def Con from 0.0135592 ++++++++++++++++++++to 0.0135592
Heightened Def Con from 0.0135592 ++++++++++++++++++++to 0.0135592
Heightened Def Con from 0.0135592 ++++++++++++++++++++to 0.0135592
Heightened Def Con from 0.0135592 ++++++++++++++++++++to 0.0135592
Heightened Def Con from 0.0135592 ++++++++++++++++++++to 0.0135592
Heightened Def Con from 0.0135592 ++++++++++++++++++++to 0.0135592
Heightened Def Con from 0.0135592 ++++++++++++++++++++to 0.0135592
Heightened Def Con from 0.0135592 ++++++++++++++++++++to 0.0135592
Heightened Def Con from 0.0135592 ++++++++++++++++++++to 0.0135592
Heightened Def Con from 0.0135592 ++++++++++++++++++++to 0.0135592
Heightened Def Con from 0.0135592 ++++++++++++++++++++to 0.0135592
Heightened Def Con from 0.0135592 ++++++++++++++++++++to 0.0135592
Heightened Def Con from 0.0135592 ++++++++++++++++++++to 0.0135592
Heightened Def Con from 0.0135592 ++++++++++++++++++++to 0.0135592
Heightened Def Con from 0.0135592 ++++++++++++++++++++to 0.0135592
Heightened Def Con from 0.0135592 ++++++++++++++++++++to 0.0135592
Heightened Def Con from 0.0135592 ++++++++++++++++++++to 0.0135592
Heightened Def Con from 0.0135592 ++++++++++++++++++++to 0.0135592
Heightened Def Con from 0.0135592 ++++++++++++++++++++to 0.0135592
Heightened Def Con from 0.0135592 ++++++++++++++++++++to 0.0135592
Heightened Def Con from 0.0135592 ++++++++++++++++++++to 0.0135592
Heightened Def Con from 0.0135592 ++++++++++++++++++++to 0.0135592
Heightened Def Con from 0.0135592 ++++++++++++++++++++to 0.0135592
Heightened Def Con from 0.0135592 ++++++++++++++++++++to 0.0135592
Heightened Def Con from 0.0135592 ++++++++++++++++++++to 0.0135592
Heightened Def Con from 0.0135592 ++++++++++++++++++++to 0.0135592
Heightened Def Con from 0.0135592 ++++++++++++++++++++to 0.0135592
Heightened Def Con from 0.0135592 ++++++++++++++++++++to 0.0135592
Heightened Def Con from 0.0135592 ++++++++++++++++++++to 0.0135592
Heightened Def Con from 0.0135592 ++++++++++++++++++++to 0.0135592
Heightened Def Con from 0.0135592 ++++++++++++++++++++to 0.0135592
Heightened Def Con from 0.0135592 ++++++++++++++++++++to 0.0135592
Heightened Def Con from 0.0135592 ++++++++++++++++++++to 0.0135592
Heightened Def Con from 0.0135592 ++++++++++++++++++++to 0.0135592
Heightened Def Con from 0.0135592 ++++++++++++++++++++to 0.0135592
Heightened Def Con from 0.0135592 ++++++++++++++++++++to 0.0135592
Heightened Def Con from 0.0135592 ++++++++++++++++++++to 0.0135592
Heightened Def Con from 0.0135592 ++++++++++++++++++++to 0.0135592
Heightened Def Con from 0.0135592 ++++++++++++++++++++to 0.0135592
Heightened Def Con from 0.0135592 ++++++++++++++++++++to 0.0135592
Heightened Def Con from 0.0135592 ++++++++++++++++++++to 0.0135592
Heightened Def Con from 0.0135592 ++++++++++++++++++++to 0.0135592
Heightened Def Con from 0.0135592 ++++++++++++++++++++to 0.0135592
Heightened Def Con from 0.0135592 ++++++++++++++++++++to 0.0135592
Heightened Def Con from 0.0135592 to 0.0135592
Heightened Def Con from 0.0135592 ++++++++++++++++++++to 0.0135592
Heightened Def Con from 0.0135592 to 0.0135592
Heightened Def Con from 0.0135592 ++++++++++++++++++++to 0.0135592
Heightened Def Con from 0.0135592 +++++to 0.0135592
Heightened Def Con from 0.0135592 ++++++++++++++++++++to 0.0135592
Heightened Def Con from 0.0135592 ++++++++++++++++++++to 0.0135592
Heightened Def Con from 0.0135592 ++++++++++++++++++++to 0.0135592
Heightened Def Con from 0.0135592 ++++++++++++++++++++to 0.0135592
Heightened Def Con from 0.0135592 ++++++++++++++++++++to 0.0135592
Heightened Def Con from 0.0135592 ++++++++++++++++++++to 0.0135592
Heightened Def Con from 0.0135592 ++++++++++++++++++++to 0.0135592
Heightened Def Con from 0.0135592 ++++++++++++++++++++to 0.0135592
Heightened Def Con from 0.0135592 ++++++++++++++++++++to 0.0135592
Heightened Def Con from 0.0135592 ++++++++++++++++++++to 0.0135592
Heightened Def Con from 0.0135592 ++++++++++++++++++++to 0.0135592
Heightened Def Con from 0.0135592 ++++++++++++++++++++to 0.0135592
Heightened Def Con from 0.0135592 ++++++++++++++++++++to 0.0135592
Heightened Def Con from 0.0135592 ++++++++++++++++++++to 0.0135592
Heightened Def Con from 0.0135592 ++++++++++++++++++++to 0.0135592
Heightened Def Con from 0.0135592 ++++++++++++++++++++to 0.0135592
Heightened Def Con from 0.0135592 ++++++++++++++++++++to 0.0135592
Heightened Def Con from 0.0135592 ++++++++++++++++++++to 0.0135592
Heightened Def Con from 0.0135592 ++++++++++++++++++++to 0.0135592
Heightened Def Con from 0.0135592 ++++++++++++++++++++to 0.0135592
Heightened Def Con from 0.0135592 ++++++++++++++++++++to 0.0135592
Heightened Def Con from 0.0135592 ++++++++++++++++++++to 0.0135592
Heightened Def Con from 0.0135592 ++++++++++++++++++++to 0.0135592
Heightened Def Con from 0.0135592 ++++++++++++++++++++to 0.0135592
Heightened Def Con from 0.0135592 ++++++++++++++++++++to 0.0135592
Heightened Def Con from 0.0135592 ++++++++++++++++++++to 0.0135592
Heightened Def Con from 0.0135592 ++++++++++++++++++++to 0.0135592
Heightened Def Con from 0.0135592 ++++++++++++++++++++to 0.0135592
Heightened Def Con from 0.0135592 ++++++++++++++++++++to 0.0135592
Heightened Def Con from 0.0135592 ++++++++++++++++++++to 0.0135592
Heightened Def Con from 0.0135592 ++++++++++++++++++++to 0.0135592
Heightened Def Con from 0.0135592 ++++++++++++++++++++to 0.0135592
Heightened Def Con from 0.0135592 ++++++++++++++++++++to 0.0135592
Heightened Def Con from 0.0135592 ++++++++++++++++++++to 0.0135592
Heightened Def Con from 0.0135592 ++++++++++++++++++++to 0.0135592
Heightened Def Con from 0.0135592 ++++++++++++++++++++to 0.0135592
Heightened Def Con from 0.0135592 ++++++++++++++++++++to 0.0135592
Heightened Def Con from 0.0135592 ++++++++++++++++++++to 0.0135592
Heightened Def Con from 0.0135592 ++++++++++++++++++++to 0.0135592
Heightened Def Con from 0.0135592 ++++++++++++++++++++to 0.0135592
Heightened Def Con from 0.0135592 ++++++++++++++++++++to 0.0135592
Heightened Def Con from 0.0135592 ++++++++++++++++++++to 0.0135592
Heightened Def Con from 0.0135592 ++++++++++++++++++++to 0.0135592
Heightened Def Con from 0.0135592 ++++++++++++++++++++to 0.0135592
Heightened Def Con from 0.0135592 ++++++++++++++++++++to 0.0135592
Heightened Def Con from 0.0135592 ++++++++++++++++++++to 0.0135592
Heightened Def Con from 0.0135592 ++++++++++++++++++++to 0.0135592
Heightened Def Con from 0.0135592 ++++++++++++++++++++to 0.0135592
Heightened Def Con from 0.0135592 ++++++++++++++++++++to 0.0135592
Heightened Def Con from 0.0135592 ++++++++++++++++++++to 0.0135592
Heightened Def Con from 0.0135592 ++++++++++++++++++++to 0.0135592
Heightened Def Con from 0.0135592 ++++++++++++++++++++to 0.0135592
Heightened Def Con from 0.0135592 ++++++++++++++++++++to 0.0135592
Heightened Def Con from 0.0135592 ++++++++++++++++++++to 0.0135592
Heightened Def Con from 0.0135592 ++++++++++++++++++++to 0.0135592
Heightened Def Con from 0.0135592 ++++++++++++++++++++to 0.0135592
Heightened Def Con from 0.0135592 ++++++++++++++++++++to 0.0135592
Heightened Def Con from 0.0135592 ++++++++++++++++++++to 0.0135592
Heightened Def Con from 0.0135592 ++++++++++++++++++++to 0.0135592
Heightened Def Con from 0.0135592 ++++++++++++++++++++to 0.0135592
Heightened Def Con from 0.0135592 ++++++++++++++++++++to 0.0135592
Heightened Def Con from 0.0135592 ++++++++++++++++++++to 0.0135592
Heightened Def Con from 0.0135592 ++++++++++++++++++++to 0.0135592
Heightened Def Con from 0.0135592 ++++++++++++++++++++to 0.0135592
Heightened Def Con from 0.0135592 ++++++++++++++++++++to 0.0135592
Heightened Def Con from 0.0135592 ++++++++++++++++++++to 0.0135592
Heightened Def Con from 0.0135592 ++++++++++++++++++++to 0.0135592
Heightened Def Con from 0.0135592 ++++++++++++++++++++to 0.0135592
Heightened Def Con from 0.0135592 ++++++++++++++++++++to 0.0135592
Heightened Def Con from 0.0135592 ++++++++++++++++++++to 0.0135592
Heightened Def Con from 0.0135592 ++++++++++++++++++++to 0.0135592
Heightened Def Con from 0.0135592 ++++++++++++++++++++to 0.0135592
Heightened Def Con from 0.0135592 ++++++++++++++++++++to 0.0135592
Heightened Def Con from 0.0135592 ++++++++++++++++++++to 0.0135592
Heightened Def Con from 0.0135592 ++++++++++++++++++++to 0.0135592
Heightened Def Con from 0.0135592 ++++++++++++++++++++to 0.0135592
Heightened Def Con from 0.0135592 ++++++++++++++++++++to 0.0135592
Heightened Def Con from 0.0135592 ++++++++++++++++++++to 0.0135592
Heightened Def Con from 0.0135592 ++++++++++++++++++++to 0.0135592
Heightened Def Con from 0.0135592 ++++++++++++++++++++to 0.0135592
Heightened Def Con from 0.0135592 ++++++++++++++++++++to 0.0135592
Heightened Def Con from 0.0135592 ++++++++++++++++++++to 0.0135592
Heightened Def Con from 0.0135592 ++++++++++++++++++++to 0.0135592
Heightened Def Con from 0.0135592 ++++++++++++++++++++to 0.0135592
Heightened Def Con from 0.0135592 ++++++++++++++++++++to 0.0135592
Heightened Def Con from 0.0135592 ++++++++++++++++++++to 0.0135592
Heightened Def Con from 0.0135592 ++++++++++++++++++++to 0.0135592
Heightened Def Con from 0.0135592 ++++++++++++++++++++to 0.0135592
Heightened Def Con from 0.0135592 ++++++++++++++++++++to 0.0135592
Heightened Def Con from 0.0135592 ++++++++++++++++++++to 0.0135592
Heightened Def Con from 0.0135592 ++++++++++++++++++++to 0.0135592
Heightened Def Con from 0.0135592 ++++++++++++++++++++to 0.0135592
Heightened Def Con from 0.0135592 ++++++++++++++++++++to 0.0135592
Heightened Def Con from 0.0135592 ++++++++++++++++++++to 0.0135592
Heightened Def Con from 0.0135592 ++++++++++++++++++++to 0.0135592
Heightened Def Con from 0.0135592 ++++++++++++++++++++to 0.0135592
Heightened Def Con from 0.0135592 ++++++++++++++++++++to 0.0135592
Heightened Def Con from 0.0135592 ++++++++++++++++++++to 0.0135592
Heightened Def Con from 0.0135592 ++++++++++++++++++++to 0.0135592
Heightened Def Con from 0.0135592 ++++++++++++++++++++to 0.0135592
Heightened Def Con from 0.0135592 ++++++++++++++++++++to 0.0135592
Heightened Def Con from 0.0135592 ++++++++++++++++++++to 0.0135592
Heightened Def Con from 0.0135592 ++++++++++++++++++++to 0.0135592
Heightened Def Con from 0.0135592 ++++++++++++++++++++to 0.0135592
Heightened Def Con from 0.0135592 ++++++++++++++++++++to 0.0135592
Heightened Def Con from 0.0135592 ++++++++++++++++++++to 0.0135592
Heightened Def Con from 0.0135592 ++++++++++++++++++++to 0.0135592
Heightened Def Con from 0.0135592 ++++++++++++++++++++to 0.0135592
Heightened Def Con from 0.0135592 ++++++++++++++++++++to 0.0135592
Heightened Def Con from 0.0135592 ++++++++++++++++++++to 0.0135592
Heightened Def Con from 0.0135592 ++++++++++++++++++++to 0.0135592
Heightened Def Con from 0.0135592 ++++++++++++++++++++to 0.0135592
Heightened Def Con from 0.0135592 ++++++++++++++++++++to 0.0135592
Heightened Def Con from 0.0135592 ++++++++++++++++++++to 0.0135592
Heightened Def Con from 0.0135592 ++++++++++++++++++++to 0.0135592
Heightened Def Con from 0.0135592 ++++++++++++++++++++to 0.0135592
Heightened Def Con from 0.0135592 ++++++++++++++++++++to 0.0135592
Heightened Def Con from 0.0135592 ++++++++++++++++++++to 0.0135592
Heightened Def Con from 0.0135592 ++++++++++++++++++++to 0.0135592
Heightened Def Con from 0.0135592 ++++++++++++++++++++to 0.0135592
Heightened Def Con from 0.0135592 ++++++++++++++++++++to 0.0135592
Heightened Def Con from 0.0135592 ++++++++++++++++++++to 0.0135592
Heightened Def Con from 0.0135592 ++++++++++++++++++++to 0.0135592
Heightened Def Con from 0.0135592 ++++++++++++++++++++to 0.0135592
Heightened Def Con from 0.0135592 ++++++++++++++++++++to 0.0135592
Heightened Def Con from 0.0135592 ++++++++++++++++++++to 0.0135592
Heightened Def Con from 0.0135592 ++++++++++++++++++++to 0.0135592
Heightened Def Con from 0.0135592 ++++++++++++++++++++to 0.0135592
Heightened Def Con from 0.0135592 ++++++++++++++++++++to 0.0135592
Heightened Def Con from 0.0135592 ++++++++++++++++++++to 0.0135592
Heightened Def Con from 0.0135592 ++++++++++++++++++++to 0.0135592
Heightened Def Con from 0.0135592 ++++++++++++++++++++to 0.0135592
Heightened Def Con from 0.0135592 ++++++++++++++++++++to 0.0135592
Heightened Def Con from 0.0135592 ++++++++++++++++++++to 0.0135592
Heightened Def Con from 0.0135592 ++++++++++++++++++++to 0.0135592
Heightened Def Con from 0.0135592 ++++++++++++++++++++to 0.0135592
Heightened Def Con from 0.0135592 ++++++++++++++++++++to 0.0135592
Heightened Def Con from 0.0135592 ++++++++++++++++++++to 0.0135592
Heightened Def Con from 0.0135592 ++++++++++++++++++++to 0.0135592
Heightened Def Con from 0.0135592 ++++++++++++++++++++to 0.0135592
Heightened Def Con from 0.0135592 ++++++++++++++++++++to 0.0135592
Heightened Def Con from 0.0135592 ++++++++++++++++++++to 0.0135592
Heightened Def Con from 0.0135592 ++++++++++++++++++++to 0.0135592
Heightened Def Con from 0.0135592 ++++++++++++++++++++to 0.0135592
Heightened Def Con from 0.0135592 ++++++++++++++++++++to 0.0135592
Heightened Def Con from 0.0135592 ++++++++++++++++++++to 0.0135592
Heightened Def Con from 0.0135592 ++++++++++++++++++++to 0.0135592
Heightened Def Con from 0.0135592 ++++++++++++++++++++to 0.0135592
Heightened Def Con from 0.0135592 ++++++++++++++++++++to 0.0135592
Heightened Def Con from 0.0135592 ++++++++++++++++++++to 0.0135592
Heightened Def Con from 0.0135592 ++++++++++++++++++++to 0.0135592
Heightened Def Con from 0.0135592 ++++++++++++++++++++to 0.0135592
Heightened Def Con from 0.0135592 ++++++++++++++++++++to 0.0135592
Heightened Def Con from 0.0135592 ++++++++++++++++++++to 0.0135592
Heightened Def Con from 0.0135592 ++++++++++++++++++++to 0.0135592
Heightened Def Con from 0.0135592 ++++++++++++++++++++to 0.0135592
Heightened Def Con from 0.0135592 ++++++++++++++++++++to 0.0135592
Heightened Def Con from 0.0135592 ++++++++++++++++++++to 0.0135592
Heightened Def Con from 0.0135592 ++++++++++++++++++++to 0.0135592
Heightened Def Con from 0.0135592 ++++++++++++++++++++to 0.0135592
Heightened Def Con from 0.0135592 ++++++++++++++++++++to 0.0135592
Heightened Def Con from 0.0135592 ++++++++++++++++++++to 0.0135592
Heightened Def Con from 0.0135592 ++++++++++++++++++++to 0.0135592
Heightened Def Con from 0.0135592 ++++++++++++++++++++to 0.0135592
Heightened Def Con from 0.0135592 ++++++++++++++++++++to 0.0135592
Heightened Def Con from 0.0135592 ++++++++++++++++++++to 0.0135592
Heightened Def Con from 0.0135592 ++++++++++++++++++++to 0.0135592
Heightened Def Con from 0.0135592 ++++++++++++++++++++to 0.0135592
Heightened Def Con from 0.0135592 ++++++++++++++++++++to 0.0135592
Heightened Def Con from 0.0135592 ++++++++++++++++++++to 0.0135592
Heightened Def Con from 0.0135592 ++++++++++++++++++++to 0.0135592
Heightened Def Con from 0.0135592 ++++++++++++++++++++to 0.0135592
Heightened Def Con from 0.0135592 ++++++++++++++++++++to 0.0135592
Heightened Def Con from 0.0135592 ++++++++++++++++++++to 0.0135592
Heightened Def Con from 0.0135592 ++++++++++++++++++++to 0.0135592
Heightened Def Con from 0.0135592 ++++++++++++++++++++to 0.0135592
Heightened Def Con from 0.0135592 ++++++++++++++++++++to 0.0135592
Heightened Def Con from 0.0135592 ++++++++++++++++++++to 0.0135592
Heightened Def Con from 0.0135592 ++++++++++++++++++++to 0.0135592
Heightened Def Con from 0.0135592 ++++++++++++++++++++to 0.0135592
Heightened Def Con from 0.0135592 ++++++++++++++++++++to 0.0135592
Heightened Def Con from 0.0135592 ++++++++++++++++++++to 0.0135592
Heightened Def Con from 0.0135592 ++++++++++++++++++++to 0.0135592
Heightened Def Con from 0.0135592 ++++++++++++++++++++to 0.0135592
Heightened Def Con from 0.0135592 ++++++++++++++++++++to 0.0135592
Heightened Def Con from 0.0135592 ++++++++++++++++++++to 0.0135592
Heightened Def Con from 0.0135592 ++++++++++++++++++++to 0.0135592
Heightened Def Con from 0.0135592 ++++++++++++++++++++to 0.0135592
Heightened Def Con from 0.0135592 ++++++++++++++++++++to 0.0135592
Heightened Def Con from 0.0135592 ++++++++++++++++++++to 0.0135592
Heightened Def Con from 0.0135592 ++++++++++++++++++++to 0.0135592
Heightened Def Con from 0.0135592 ++++++++++++++++++++to 0.0135592
Heightened Def Con from 0.0135592 ++++++++++++++++++++to 0.0135592
Heightened Def Con from 0.0135592 ++++++++++++++++++++to 0.0135592
Heightened Def Con from 0.0135592 ++++++++++++++++++++to 0.0135592
Heightened Def Con from 0.0135592 ++++++++++++++++++++to 0.0135592
Heightened Def Con from 0.0135592 ++++++++++++++++++++to 0.0135592
Heightened Def Con from 0.0135592 ++++++++++++++++++++to 0.0135592
Heightened Def Con from 0.0135592 ++++++++++++++++++++to 0.0135592
Heightened Def Con from 0.0135592 ++++++++++++++++++++to 0.0135592
Heightened Def Con from 0.0135592 ++++++++++++++++++++to 0.0135592
Heightened Def Con from 0.0135592 ++++++++++++++++++++to 0.0135592
Heightened Def Con from 0.0135592 ++++++++++++++++++++to 0.0135592
Heightened Def Con from 0.0135592 ++++++++++++++++++++to 0.0135592
Heightened Def Con from 0.0135592 ++++++++++++++++++++to 0.0135592
Heightened Def Con from 0.0135592 ++++++++++++++++++++to 0.0135592
Heightened Def Con from 0.0135592 ++++++++++++++++++++to 0.0135592
Heightened Def Con from 0.0135592 ++++++++++++++++++++to 0.0135592
Heightened Def Con from 0.0135592 ++++++++++++++++++++to 0.0135592
Heightened Def Con from 0.0135592 ++++++++++++++++++++to 0.0135592
Heightened Def Con from 0.0135592 ++++++++++++++++++++to 0.0135592
Heightened Def Con from 0.0135592 ++++++++++++++++++++to 0.0135592
Heightened Def Con from 0.0135592 ++++++++++++++++++++to 0.0135592
Heightened Def Con from 0.0135592 ++++++++++++++++++++to 0.0135592
Heightened Def Con from 0.0135592 ++++++++++++++++++++to 0.0135592
Heightened Def Con from 0.0135592 ++++++++++++++++++++to 0.0135592
Heightened Def Con from 0.0135592 ++++++++++++++++++++to 0.0135592
Heightened Def Con from 0.0135592 ++++++++++++++++++++to 0.0135592
Heightened Def Con from 0.0135592 ++++++++++++++++++++to 0.0135592
Heightened Def Con from 0.0135592 ++++++++++++++++++++to 0.0135592
Heightened Def Con from 0.0135592 ++++++++++++++++++++to 0.0135592
Heightened Def Con from 0.0135592 ++++++++++++++++++++to 0.0135592
Heightened Def Con from 0.0135592 ++++++++++++++++++++to 0.0135592
Heightened Def Con from 0.0135592 ++++++++++++++++++++to 0.0135592
Heightened Def Con from 0.0135592 ++++++++++++++++++++to 0.0135592
Heightened Def Con from 0.0135592 ++++++++++++++++++++to 0.0135592
Heightened Def Con from 0.0135592 ++++++++++++++++++++to 0.0135592
Heightened Def Con from 0.0135592 ++++++++++++++++++++to 0.0135592
Heightened Def Con from 0.0135592 ++++++++++++++++++++to 0.0135592
Heightened Def Con from 0.0135592 ++++++++++++++++++++to 0.0135592
Heightened Def Con from 0.0135592 ++++++++++++++++++++to 0.0135592
Heightened Def Con from 0.0135592 ++++++++++++++++++++to 0.0135592
Heightened Def Con from 0.0135592 ++++++++++++++++++++to 0.0135592
Heightened Def Con from 0.0135592 ++++++++++++++++++++to 0.0135592
Heightened Def Con from 0.0135592 ++++++++++++++++++++to 0.0135592
Heightened Def Con from 0.0135592 ++++++++++++++++++++to 0.0135592
Heightened Def Con from 0.0135592 ++++++++++++++++++++to 0.0135592
Heightened Def Con from 0.0135592 ++++++++++++++++++++to 0.0135592
Heightened Def Con from 0.0135592 ++++++++++++++++++++to 0.0135592
Heightened Def Con from 0.0135592 ++++++++++++++++++++to 0.0135592
Heightened Def Con from 0.0135592 ++++++++++++++++++++to 0.0135592
Heightened Def Con from 0.0135592 ++++++++++++++++++++to 0.0135592
Heightened Def Con from 0.0135592 ++++++++++++++++++++to 0.0135592
Heightened Def Con from 0.0135592 ++++++++++++++++++++to 0.0135592
Heightened Def Con from 0.0135592 ++++++++++++++++++++to 0.0135592
Heightened Def Con from 0.0135592 ++++++++++++++++++++to 0.0135592
Heightened Def Con from 0.0135592 ++++++++++++++++++++to 0.0135592
Heightened Def Con from 0.0135592 ++++++++++++++++++++to 0.0135592
Heightened Def Con from 0.0135592 ++++++++++++++++++++to 0.0135592
Heightened Def Con from 0.0135592 ++++++++++++++++++++to 0.0135592
Heightened Def Con from 0.0135592 ++++++++++++++++++++to 0.0135592
Heightened Def Con from 0.0135592 ++++++++++++++++++++to 0.0135592
Heightened Def Con from 0.0135592 ++++++++++++++++++++to 0.0135592
Heightened Def Con from 0.0135592 ++++++++++++++++++++to 0.0135592
Heightened Def Con from 0.0135592 ++++++++++++++++++++to 0.0135592
Heightened Def Con from 0.0135592 ++++++++++++++++++++to 0.0135592
Heightened Def Con from 0.0135592 ++++++++++++++++++++to 0.0135592
Heightened Def Con from 0.0135592 ++++++++++++++++++++to 0.0135592
Heightened Def Con from 0.0135592 ++++++++++++++++++++to 0.0135592
Heightened Def Con from 0.0135592 ++++++++++++++++++++to 0.0135592
Heightened Def Con from 0.0135592 ++++++++++++++++++++to 0.0135592
Heightened Def Con from 0.0135592 ++++++++++++++++++++to 0.0135592
Heightened Def Con from 0.0135592 ++++++++++++++++++++to 0.0135592
Heightened Def Con from 0.0135592 ++++++++++++++++++++to 0.0135592
Heightened Def Con from 0.0135592 ++++++++++++++++++++to 0.0135592
Heightened Def Con from 0.0135592 ++++++++++++++++++++to 0.0135592
Heightened Def Con from 0.0135592 ++++++++++++++++++++to 0.0135592
Heightened Def Con from 0.0135592 ++++++++++++++++++++to 0.0135592
Heightened Def Con from 0.0135592 ++++++++++++++++++++to 0.0135592
Heightened Def Con from 0.0135592 ++++++++++++++++++++to 0.0135592
Heightened Def Con from 0.0135592 ++++++++++++++++++++to 0.0135592
Heightened Def Con from 0.0135592 ++++++++++++++++++++to 0.0135592
Heightened Def Con from 0.0135592 ++++++++++++++++++++to 0.0135592
Heightened Def Con from 0.0135592 ++++++++++++++++++++to 0.0135592
Heightened Def Con from 0.0135592 ++++++++++++++++++++to 0.0135592
Heightened Def Con from 0.0135592 ++++++++++++++++++++to 0.0135592
Heightened Def Con from 0.0135592 ++++++++++++++++++++to 0.0135592
Heightened Def Con from 0.0135592 ++++++++++++++++++++to 0.0135592
Heightened Def Con from 0.0135592 ++++++++++++++++++++to 0.0135592
Heightened Def Con from 0.0135592 ++++++++++++++++++++to 0.0135592
Heightened Def Con from 0.0135592 ++++++++++++++++++++to 0.0135592
Heightened Def Con from 0.0135592 ++++++++++++++++++++to 0.0135592
Heightened Def Con from 0.0135592 ++++++++++++++++++++to 0.0135592
Heightened Def Con from 0.0135592 ++++++++++++++++++++to 0.0135592
Heightened Def Con from 0.0135592 ++++++++++++++++++++to 0.0135592
Heightened Def Con from 0.0135592 ++++++++++++++++++++to 0.0135592
Heightened Def Con from 0.0135592 ++++++++++++++++++++to 0.0135592
Heightened Def Con from 0.0135592 ++++++++++++++++++++to 0.0135592
Heightened Def Con from 0.0135592 ++++++++++++++++++++to 0.0135592
Heightened Def Con from 0.0135592 ++++++++++++++++++++to 0.0135592
Heightened Def Con from 0.0135592 ++++++++++++++++++++to 0.0135592
Heightened Def Con from 0.0135592 ++++++++++++++++++++to 0.0135592
Heightened Def Con from 0.0135592 ++++++++++++++++++++to 0.0135592
Heightened Def Con from 0.0135592 ++++++++++++++++++++to 0.0135592
Heightened Def Con from 0.0135592 ++++++++++++++++++++to 0.0135592
Heightened Def Con from 0.0135592 ++++++++++++++++++++to 0.0135592
Heightened Def Con from 0.0135592 ++++++++++++++++++++to 0.0135592
Heightened Def Con from 0.0135592 ++++++++++++++++++++to 0.0135592
Heightened Def Con from 0.0135592 ++++++++++++++++++++to 0.0135592
Heightened Def Con from 0.0135592 ++++++++++++++++++++to 0.0135592
Heightened Def Con from 0.0135592 ++++++++++++++++++++to 0.0135592
Heightened Def Con from 0.0135592 ++++++++++++++++++++to 0.0135592
Heightened Def Con from 0.0135592 ++++++++++++++++++++to 0.0135592
Heightened Def Con from 0.0135592 ++++++++++++++++++++to 0.0135592
Heightened Def Con from 0.0135592 ++++++++++++++++++++to 0.0135592
Heightened Def Con from 0.0135592 ++++++++++++++++++++to 0.0135592
Heightened Def Con from 0.0135592 ++++++++++++++++++++to 0.0135592
Heightened Def Con from 0.0135592 ++++++++++++++++++++to 0.0135592
Heightened Def Con from 0.0135592 ++++++++++++++++++++to 0.0135592
Heightened Def Con from 0.0135592 ++++++++++++++++++++to 0.0135592
Heightened Def Con from 0.0135592 ++++++++++++++++++++to 0.0135592
Heightened Def Con from 0.0135592 ++++++++++++++++++++to 0.0135592
Heightened Def Con from 0.0135592 ++++++++++++++++++++to 0.0135592
Heightened Def Con from 0.0135592 ++++++++++++++++++++to 0.0135592
Heightened Def Con from 0.0135592 ++++++++++++++++++++to 0.0135592
Heightened Def Con from 0.0135592 ++++++++++++++++++++to 0.0135592
Heightened Def Con from 0.0135592 ++++++++++++++++++++to 0.0135592
Heightened Def Con from 0.0135592 ++++++++++++++++++++to 0.0135592
Heightened Def Con from 0.0135592 ++++++++++++++++++++to 0.0135592
Heightened Def Con from 0.0135592 ++++++++++++++++++++to 0.0135592
Heightened Def Con from 0.0135592 ++++++++++++++++++++to 0.0135592
Heightened Def Con from 0.0135592 ++++++++++++++++++++to 0.0135592
Heightened Def Con from 0.0135592 ++++++++++++++++++++to 0.0135592
Heightened Def Con from 0.0135592 ++++++++++++++++++++to 0.0135592
Heightened Def Con from 0.0135592 ++++++++++++++++++++to 0.0135592
Heightened Def Con from 0.0135592 ++++++++++++++++++++to 0.0135592
Heightened Def Con from 0.0135592 ++++++++++++++++++++to 0.0135592
Heightened Def Con from 0.0135592 ++++++++++++++++++++to 0.0135592
Heightened Def Con from 0.0135592 ++++++++++++++++++++to 0.0135592
Heightened Def Con from 0.0135592 ++++++++++++++++++++to 0.0135592
Heightened Def Con from 0.0135592 ++++++++++++++++++++to 0.0135592
Heightened Def Con from 0.0135592 ++++++++++++++++++++to 0.0135592
Heightened Def Con from 0.0135592 ++++++++++++++++++++to 0.0135592
Heightened Def Con from 0.0135592 ++++++++++++++++++++to 0.0135592
Heightened Def Con from 0.0135592 ++++++++++++++++++++to 0.0135592
Heightened Def Con from 0.0135592 ++++++++++++++++++++to 0.0135592
Heightened Def Con from 0.0135592 ++++++++++++++++++++to 0.0135592
Heightened Def Con from 0.0135592 ++++++++++++++++++++to 0.0135592
Heightened Def Con from 0.0135592 ++++++++++++++++++++to 0.0135592
Heightened Def Con from 0.0135592 ++++++++++++++++++++to 0.0135592
Heightened Def Con from 0.0135592 ++++++++++++++++++++to 0.0135592
Heightened Def Con from 0.0135592 ++++++++++++++++++++to 0.0135592
Heightened Def Con from 0.0135592 ++++++++++++++++++++to 0.0135592
Heightened Def Con from 0.0135592 ++++++++++++++++++++to 0.0135592
Heightened Def Con from 0.0135592 ++++++++++++++++++++to 0.0135592
Heightened Def Con from 0.0135592 ++++++++++++++++++++to 0.0135592
Heightened Def Con from 0.0135592 ++++++++++++++++++++to 0.0135592
Heightened Def Con from 0.0135592 ++++++++++++++++++++to 0.0135592
Heightened Def Con from 0.0135592 ++++++++++++++++++++to 0.0135592
Heightened Def Con from 0.0135592 ++++++++++++++++++++to 0.0135592
Heightened Def Con from 0.0135592 ++++++++++++++++++++to 0.0135592
Heightened Def Con from 0.0135592 ++++++++++++++++++++to 0.0135592
Heightened Def Con from 0.0135592 ++++++++++++++++++++to 0.0135592
Heightened Def Con from 0.0135592 ++++++++++++++++++++to 0.0135592
Heightened Def Con from 0.0135592 ++++++++++++++++++++to 0.0135592
Heightened Def Con from 0.0135592 ++++++++++++++++++++to 0.0135592
Heightened Def Con from 0.0135592 ++++++++++++++++++++to 0.0135592
Heightened Def Con from 0.0135592 ++++++++++++++++++++to 0.0135592
Heightened Def Con from 0.0135592 ++++++++++++++++++++to 0.0135592
Heightened Def Con from 0.0135592 ++++++++++++++++++++to 0.0135592
Heightened Def Con from 0.0135592 ++++++++++++++++++++to 0.0135592
Heightened Def Con from 0.0135592 ++++++++++++++++++++to 0.0135592
Heightened Def Con from 0.0135592 ++++++++++++++++++++to 0.0135592
Heightened Def Con from 0.0135592 ++++++++++++++++++++to 0.0135592
Heightened Def Con from 0.0135592 ++++++++++++++++++++to 0.0135592
Heightened Def Con from 0.0135592 ++++++++++++++++++++to 0.0135592
Heightened Def Con from 0.0135592 ++++++++++++++++++++to 0.0135592
Heightened Def Con from 0.0135592 ++++++++++++++++++++to 0.0135592
Heightened Def Con from 0.0135592 ++++++++++++++++++++to 0.0135592
Heightened Def Con from 0.0135592 ++++++++++++++++++++to 0.0135592
Heightened Def Con from 0.0135592 ++++++++++++++++++++to 0.0135592
Heightened Def Con from 0.0135592 ++++++++++++++++++++to 0.0135592
Heightened Def Con from 0.0135592 ++++++++++++++++++++to 0.0135592
Heightened Def Con from 0.0135592 ++++++++++++++++++++to 0.0135592
Heightened Def Con from 0.0135592 ++++++++++++++++++++to 0.0135592
Heightened Def Con from 0.0135592 ++++++++++++++++++++to 0.0135592
Heightened Def Con from 0.0135592 ++++++++++++++++++++to 0.0135592
Heightened Def Con from 0.0135592 ++++++++++++++++++++to 0.0135592
Heightened Def Con from 0.0135592 ++++++++++++++++++++to 0.0135592
Heightened Def Con from 0.0135592 ++++++++++++++++++++to 0.0135592
Heightened Def Con from 0.0135592 ++++++++++++++++++++to 0.0135592
Heightened Def Con from 0.0135592 ++++++++++++++++++++to 0.0135592
Heightened Def Con from 0.0135592 ++++++++++++++++++++to 0.0135592
Heightened Def Con from 0.0135592 ++++++++++++++++++++to 0.0135592
Heightened Def Con from 0.0135592 ++++++++++++++++++++to 0.0135592
Heightened Def Con from 0.0135592 ++++++++++++++++++++to 0.0135592
Heightened Def Con from 0.0135592 ++++++++++++++++++++to 0.0135592
Heightened Def Con from 0.0135592 ++++++++++++++++++++to 0.0135592
Heightened Def Con from 0.0135592 ++++++++++++++++++++to 0.0135592
Heightened Def Con from 0.0135592 ++++++++++++++++++++to 0.0135592
Heightened Def Con from 0.0135592 ++++++++++++++++++++to 0.0135592
Heightened Def Con from 0.0135592 ++++++++++++++++++++to 0.0135592
Heightened Def Con from 0.0135592 ++++++++++++++++++++to 0.0135592
Heightened Def Con from 0.0135592 ++++++++++++++++++++to 0.0135592
Heightened Def Con from 0.0135592 ++++++++++++++++++++to 0.0135592
Heightened Def Con from 0.0135592 ++++++++++++++++++++to 0.0135592
Heightened Def Con from 0.0135592 ++++++++++++++++++++to 0.0135592
Heightened Def Con from 0.0135592 ++++++++++++++++++++to 0.0135592
Heightened Def Con from 0.0135592 ++++++++++++++++++++to 0.0135592
Heightened Def Con from 0.0135592 ++++++++++++++++++++to 0.0135592
Heightened Def Con from 0.0135592 ++++++++++++++++++++to 0.0135592
Heightened Def Con from 0.0135592 ++++++++++++++++++++to 0.0135592
Heightened Def Con from 0.0135592 ++++++++++++++++++++to 0.0135592
Heightened Def Con from 0.0135592 ++++++++++++++++++++to 0.0135592
Heightened Def Con from 0.0135592 ++++++++++++++++++++to 0.0135592
Heightened Def Con from 0.0135592 ++++++++++++++++++++to 0.0135592
Heightened Def Con from 0.0135592 ++++++++++++++++++++to 0.0135592
Heightened Def Con from 0.0135592 ++++++++++++++++++++to 0.0135592
Heightened Def Con from 0.0135592 ++++++++++++++++++++to 0.0135592
Heightened Def Con from 0.0135592 ++++++++++++++++++++to 0.0135592
Heightened Def Con from 0.0135592 ++++++++++++++++++++to 0.0135592
Heightened Def Con from 0.0135592 ++++++++++++++++++++to 0.0135592
Heightened Def Con from 0.0135592 ++++++++++++++++++++to 0.0135592
Heightened Def Con from 0.0135592 ++++++++++++++++++++to 0.0135592
Heightened Def Con from 0.0135592 ++++++++++++++++++++to 0.0135592
Heightened Def Con from 0.0135592 ++++++++++++++++++++to 0.0135592
Heightened Def Con from 0.0135592 ++++++++++++++++++++to 0.0135592
Heightened Def Con from 0.0135592 ++++++++++++++++++++to 0.0135592
Heightened Def Con from 0.0135592 ++++++++++++++++++++to 0.0135592
Heightened Def Con from 0.0135592 ++++++++++++++++++++to 0.0135592
Heightened Def Con from 0.0135592 ++++++++++++++++++++to 0.0135592
Heightened Def Con from 0.0135592 ++++++++++++++++++++to 0.0135592
Heightened Def Con from 0.0135592 ++++++++++++++++++++to 0.0135592
Heightened Def Con from 0.0135592 ++++++++++++++++++++to 0.0135592
Heightened Def Con from 0.0135592 ++++++++++++++++++++to 0.0135592
Heightened Def Con from 0.0135592 ++++++++++++++++++++to 0.0135592
Heightened Def Con from 0.0135592 ++++++++++++++++++++to 0.0135592
Heightened Def Con from 0.0135592 ++++++++++++++++++++to 0.0135592
Heightened Def Con from 0.0135592 ++++++++++++++++++++to 0.0135592
Heightened Def Con from 0.0135592 ++++++++++++++++++++to 0.0135592
Heightened Def Con from 0.0135592 ++++++++++++++++++++to 0.0135592
Heightened Def Con from 0.0135592 ++++++++++++++++++++to 0.0135592
Heightened Def Con from 0.0135592 ++++++++++++++++++++to 0.0135592
Heightened Def Con from 0.0135592 ++++++++++++++++++++to 0.0135592
Heightened Def Con from 0.0135592 ++++++++++++++++++++to 0.0135592
Heightened Def Con from 0.0135592 ++++++++++++++++++++to 0.0135592
Heightened Def Con from 0.0135592 ++++++++++++++++++++to 0.0135592
Heightened Def Con from 0.0135592 ++++++++++++++++++++to 0.0135592
Heightened Def Con from 0.0135592 ++++++++++++++++++++to 0.0135592
Heightened Def Con from 0.0135592 ++++++++++++++++++++to 0.0135592
Heightened Def Con from 0.0135592 ++++++++++++++++++++to 0.0135592
Heightened Def Con from 0.0135592 ++++++++++++++++++++to 0.0135592
Heightened Def Con from 0.0135592 ++++++++++++++++++++to 0.0135592
Heightened Def Con from 0.0135592 ++++++++++++++++++++to 0.0135592
Heightened Def Con from 0.0135592 ++++++++++++++++++++to 0.0135592
Heightened Def Con from 0.0135592 ++++++++++++++++++++to 0.0135592
Heightened Def Con from 0.0135592 ++++++++++++++++++++to 0.0135592
Heightened Def Con from 0.0135592 ++++++++++++++++++++to 0.0135592
Heightened Def Con from 0.0135592 ++++++++++++++++++++to 0.0135592
Heightened Def Con from 0.0135592 ++++++++++++++++++++to 0.0135592
Heightened Def Con from 0.0135592 ++++++++++++++++++++to 0.0135592
Heightened Def Con from 0.0135592 ++++++++++++++++++++to 0.0135592
Heightened Def Con from 0.0135592 ++++++++++++++++++++to 0.0135592
Heightened Def Con from 0.0135592 ++++++++++++++++++++to 0.0135592
Heightened Def Con from 0.0135592 ++++++++++++++++++++to 0.0135592
Heightened Def Con from 0.0135592 ++++++++++++++++++++to 0.0135592
Heightened Def Con from 0.0135592 ++++++++++++++++++++to 0.0135592
Heightened Def Con from 0.0135592 ++++++++++++++++++++to 0.0135592
Heightened Def Con from 0.0135592 ++++++++++++++++++++to 0.0135592
Heightened Def Con from 0.0135592 ++++++++++++++++++++to 0.0135592
Heightened Def Con from 0.0135592 ++++++++++++++++++++to 0.0135592
Heightened Def Con from 0.0135592 ++++++++++++++++++++to 0.0135592
Heightened Def Con from 0.0135592 ++++++++++++++++++++to 0.0135592
Heightened Def Con from 0.0135592 ++++++++++++++++++++to 0.0135592
Heightened Def Con from 0.0135592 ++++++++++++++++++++to 0.0135592
Heightened Def Con from 0.0135592 ++++++++++++++++++++to 0.0135592
Heightened Def Con from 0.0135592 ++++++++++++++++++++to 0.0135592
Heightened Def Con from 0.0135592 ++++++++++++++++++++to 0.0135592
Heightened Def Con from 0.0135592 ++++++++++++++++++++to 0.0135592
Heightened Def Con from 0.0135592 ++++++++++++++++++++to 0.0135592
Heightened Def Con from 0.0135592 ++++++++++++++++++++to 0.0135592
Heightened Def Con from 0.0135592 ++++++++++++++++++++to 0.0135592
Heightened Def Con from 0.0135592 ++++++++++++++++++++to 0.0135592
Heightened Def Con from 0.0135592 ++++++++++++++++++++to 0.0135592
Heightened Def Con from 0.0135592 ++++++++++++++++++++to 0.0135592
Heightened Def Con from 0.0135592 ++++++++++++++++++++to 0.0135592
Heightened Def Con from 0.0135592 ++++++++++++++++++++to 0.0135592
Heightened Def Con from 0.0135592 ++++++++++++++++++++to 0.0135592
Heightened Def Con from 0.0135592 ++++++++++++++++++++to 0.0135592
Heightened Def Con from 0.0135592 ++++++++++++++++++++to 0.0135592
Heightened Def Con from 0.0135592 ++++++++++++++++++++to 0.0135592
Heightened Def Con from 0.0135592 ++++++++++++++++++++to 0.0135592
Heightened Def Con from 0.0135592 ++++++++++++++++++++to 0.0135592
Heightened Def Con from 0.0135592 ++++++++++++++++++++to 0.0135592
Heightened Def Con from 0.0135592 ++++++++++++++++++++to 0.0135592
Heightened Def Con from 0.0135592 ++++++++++++++++++++to 0.0135592
Heightened Def Con from 0.0135592 ++++++++++++++++++++to 0.0135592
Heightened Def Con from 0.0135592 ++++++++++++++++++++to 0.0135592
Heightened Def Con from 0.0135592 ++++++++++++++++++++to 0.0135592
Heightened Def Con from 0.0135592 ++++++++++++++++++++to 0.0135592
Heightened Def Con from 0.0135592 ++++++++++++++++++++to 0.0135592
Heightened Def Con from 0.0135592 ++++++++++++++++++++to 0.0135592
Heightened Def Con from 0.0135592 ++++++++++++++++++++to 0.0135592
Heightened Def Con from 0.0135592 ++++++++++++++++++++to 0.0135592
Heightened Def Con from 0.0135592 ++++++++++++++++++++to 0.0135592
Heightened Def Con from 0.0135592 ++++++++++++++++++++to 0.0135592
Heightened Def Con from 0.0135592 ++++++++++++++++++++to 0.0135592
Heightened Def Con from 0.0135592 ++++++++++++++++++++to 0.0135592
Heightened Def Con from 0.0135592 ++++++++++++++++++++to 0.0135592
Heightened Def Con from 0.0135592 ++++++++++++++++++++to 0.0135592
Heightened Def Con from 0.0135592 ++++++++++++++++++++to 0.0135592
Heightened Def Con from 0.0135592 ++++++++++++++++++++to 0.0135592
Heightened Def Con from 0.0135592 ++++++++++++++++++++to 0.0135592
Heightened Def Con from 0.0135592 ++++++++++++++++++++to 0.0135592
Heightened Def Con from 0.0135592 ++++++++++++++++++++to 0.0135592
Heightened Def Con from 0.0135592 ++++++++++++++++++++to 0.0135592
Heightened Def Con from 0.0135592 ++++++++++++++++++++to 0.0135592
Heightened Def Con from 0.0135592 ++++++++++++++++++++to 0.0135592
Heightened Def Con from 0.0135592 ++++++++++++++++++++to 0.0135592
Heightened Def Con from 0.0135592 ++++++++++++++++++++to 0.0135592
Heightened Def Con from 0.0135592 ++++++++++++++++++++to 0.0135592
Heightened Def Con from 0.0135592 ++++++++++++++++++++to 0.0135592
Heightened Def Con from 0.0135592 ++++++++++++++++++++to 0.0135592
Heightened Def Con from 0.0135592 ++++++++++++++++++++to 0.0135592
Heightened Def Con from 0.0135592 ++++++++++++++++++++to 0.0135592
Heightened Def Con from 0.0135592 ++++++++++++++++++++to 0.0135592
Heightened Def Con from 0.0135592 ++++++++++++++++++++to 0.0135592
Heightened Def Con from 0.0135592 ++++++++++++++++++++to 0.0135592
Heightened Def Con from 0.0135592 ++++++++++++++++++++to 0.0135592
Heightened Def Con from 0.0135592 ++++++++++++++++++++to 0.0135592
Heightened Def Con from 0.0135592 ++++++++++++++++++++to 0.0135592
Heightened Def Con from 0.0135592 ++++++++++++++++++++to 0.0135592
Heightened Def Con from 0.0135592 ++++++++++++++++++++to 0.0135592
Heightened Def Con from 0.0135592 ++++++++++++++++++++to 0.0135592
Heightened Def Con from 0.0135592 ++++++++++++++++++++to 0.0135592
Heightened Def Con from 0.0135592 ++++++++++++++++++++to 0.0135592
Heightened Def Con from 0.0135592 ++++++++++++++++++++to 0.0135592
Heightened Def Con from 0.0135592 ++++++++++++++++++++to 0.0135592
Heightened Def Con from 0.0135592 ++++++++++++++++++++to 0.0135592
Heightened Def Con from 0.0135592 ++++++++++++++++++++to 0.0135592
Heightened Def Con from 0.0135592 ++++++++++++++++++++to 0.0135592
Heightened Def Con from 0.0135592 ++++++++++++++++++++to 0.0135592
Heightened Def Con from 0.0135592 ++++++++++++++++++++to 0.0135592
Heightened Def Con from 0.0135592 ++++++++++++++++++++to 0.0135592
Heightened Def Con from 0.0135592 ++++++++++++++++++++to 0.0135592
Heightened Def Con from 0.0135592 ++++++++++++++++++++to 0.0135592
Heightened Def Con from 0.0135592 ++++++++++++++++++++to 0.0135592
Heightened Def Con from 0.0135592 ++++++++++++++++++++to 0.0135592
Heightened Def Con from 0.0135592 ++++++++++++++++++++to 0.0135592
Heightened Def Con from 0.0135592 ++++++++++++++++++++to 0.0135592
Heightened Def Con from 0.0135592 ++++++++++++++++++++to 0.0135592
Heightened Def Con from 0.0135592 ++++++++++++++++++++to 0.0135592
Heightened Def Con from 0.0135592 ++++++++++++++++++++to 0.0135592
Heightened Def Con from 0.0135592 ++++++++++++++++++++to 0.0135592
Heightened Def Con from 0.0135592 ++++++++++++++++++++to 0.0135592
Heightened Def Con from 0.0135592 ++++++++++++++++++++to 0.0135592
Heightened Def Con from 0.0135592 ++++++++++++++++++++to 0.0135592
Heightened Def Con from 0.0135592 ++++++++++++++++++++to 0.0135592
Heightened Def Con from 0.0135592 ++++++++++++++++++++to 0.0135592
Heightened Def Con from 0.0135592 ++++++++++++++++++++to 0.0135592
Heightened Def Con from 0.0135592 ++++++++++++++++++++to 0.0135592
Heightened Def Con from 0.0135592 ++++++++++++++++++++to 0.0135592
Heightened Def Con from 0.0135592 ++++++++++++++++++++to 0.0135592
Heightened Def Con from 0.0135592 ++++++++++++++++++++to 0.0135592
Heightened Def Con from 0.0135592 ++++++++++++++++++++to 0.0135592
Heightened Def Con from 0.0135592 ++++++++++++++++++++to 0.0135592
Heightened Def Con from 0.0135592 ++++++++++++++++++++to 0.0135592
Heightened Def Con from 0.0135592 ++++++++++++++++++++to 0.0135592
Heightened Def Con from 0.0135592 ++++++++++++++++++++to 0.0135592
Heightened Def Con from 0.0135592 ++++++++++++++++++++to 0.0135592
Heightened Def Con from 0.0135592 ++++++++++++++++++++to 0.0135592
Heightened Def Con from 0.0135592 ++++++++++++++++++++to 0.0135592
Heightened Def Con from 0.0135592 ++++++++++++++++++++to 0.0135592
Heightened Def Con from 0.0135592 ++++++++++++++++++++to 0.0135592
Heightened Def Con from 0.0135592 ++++++++++++++++++++to 0.0135592
Heightened Def Con from 0.0135592 ++++++++++++++++++++to 0.0135592
Heightened Def Con from 0.0135592 ++++++++++++++++++++to 0.0135592
Heightened Def Con from 0.0135592 ++++++++++++++++++++to 0.0135592
Heightened Def Con from 0.0135592 ++++++++++++++++++++to 0.0135592
Heightened Def Con from 0.0135592 ++++++++++++++++++++to 0.0135592
Heightened Def Con from 0.0135592 ++++++++++++++++++++to 0.0135592
Heightened Def Con from 0.0135592 ++++++++++++++++++++to 0.0135592
Heightened Def Con from 0.0135592 ++++++++++++++++++++to 0.0135592
Heightened Def Con from 0.0135592 ++++++++++++++++++++to 0.0135592
Heightened Def Con from 0.0135592 ++++++++++++++++++++to 0.0135592
Heightened Def Con from 0.0135592 ++++++++++++++++++++to 0.0135592
Heightened Def Con from 0.0135592 ++++++++++++++++++++to 0.0135592
Heightened Def Con from 0.0135592 ++++++++++++++++++++to 0.0135592
Heightened Def Con from 0.0135592 ++++++++++++++++++++to 0.0135592
Heightened Def Con from 0.0135592 ++++++++++++++++++++to 0.0135592
Heightened Def Con from 0.0135592 ++++++++++++++++++++to 0.0135592
Heightened Def Con from 0.0135592 ++++++++++++++++++++to 0.0135592
Heightened Def Con from 0.0135592 ++++++++++++++++++++to 0.0135592
Heightened Def Con from 0.0135592 ++++++++++++++++++++to 0.0135592
Heightened Def Con from 0.0135592 ++++++++++++++++++++to 0.0135592
Heightened Def Con from 0.0135592 ++++++++++++++++++++to 0.0135592
Heightened Def Con from 0.0135592 ++++++++++++++++++++to 0.0135592
Heightened Def Con from 0.0135592 ++++++++++++++++++++to 0.0135592
Heightened Def Con from 0.0135592 ++++++++++++++++++++to 0.0135592
Heightened Def Con from 0.0135592 ++++++++++++++++++++to 0.0135592
Heightened Def Con from 0.0135592 ++++++++++++++++++++to 0.0135592
Heightened Def Con from 0.0135592 ++++++++++++++++++++to 0.0135592
Heightened Def Con from 0.0135592 ++++++++++++++++++++to 0.0135592
Heightened Def Con from 0.0135592 ++++++++++++++++++++to 0.0135592
Heightened Def Con from 0.0135592 ++++++++++++++++++++to 0.0135592
Heightened Def Con from 0.0135592 ++++++++++++++++++++to 0.0135592
Heightened Def Con from 0.0135592 ++++++++++++++++++++to 0.0135592
Heightened Def Con from 0.0135592 ++++++++++++++++++++to 0.0135592
Heightened Def Con from 0.0135592 ++++++++++++++++++++to 0.0135592
Heightened Def Con from 0.0135592 ++++++++++++++++++++to 0.0135592
Heightened Def Con from 0.0135592 ++++++++++++++++++++to 0.0135592
Heightened Def Con from 0.0135592 ++++++++++++++++++++to 0.0135592
Heightened Def Con from 0.0135592 ++++++++++++++++++++to 0.0135592
Heightened Def Con from 0.0135592 ++++++++++++++++++++to 0.0135592
Heightened Def Con from 0.0135592 ++++++++++++++++++++to 0.0135592
Heightened Def Con from 0.0135592 ++++++++++++++++++++to 0.0135592
Heightened Def Con from 0.0135592 ++++++++++++++++++++to 0.0135592
Heightened Def Con from 0.0135592 ++++++++++++++++++++to 0.0135592
Heightened Def Con from 0.0135592 ++++++++++++++++++++to 0.0135592
Heightened Def Con from 0.0135592 ++++++++++++++++++++to 0.0135592
Heightened Def Con from 0.0135592 ++++++++++++++++++++to 0.0135592
Heightened Def Con from 0.0135592 ++++++++++++++++++++to 0.0135592
Heightened Def Con from 0.0135592 ++++++++++++++++++++to 0.0135592
Heightened Def Con from 0.0135592 ++++++++++++++++++++to 0.0135592
Heightened Def Con from 0.0135592 ++++++++++++++++++++to 0.0135592
Heightened Def Con from 0.0135592 ++++++++++++++++++++to 0.0135592
Heightened Def Con from 0.0135592 ++++++++++++++++++++to 0.0135592
Heightened Def Con from 0.0135592 ++++++++++++++++++++to 0.0135592
Heightened Def Con from 0.0135592 ++++++++++++++++++++to 0.0135592
Heightened Def Con from 0.0135592 ++++++++++++++++++++to 0.0135592
Heightened Def Con from 0.0135592 ++++++++++++++++++++to 0.0135592
Heightened Def Con from 0.0135592 ++++++++++++++++++++to 0.0135592
Heightened Def Con from 0.0135592 ++++++++++++++++++++to 0.0135592
Heightened Def Con from 0.0135592 ++++++++++++++++++++to 0.0135592
Heightened Def Con from 0.0135592 ++++++++++++++++++++to 0.0135592
Heightened Def Con from 0.0135592 ++++++++++++++++++++to 0.0135592
Heightened Def Con from 0.0135592 ++++++++++++++++++++to 0.0135592
Heightened Def Con from 0.0135592 ++++++++++++++++++++to 0.0135592
Heightened Def Con from 0.0135592 ++++++++++++++++++++to 0.0135592
Heightened Def Con from 0.0135592 ++++++++++++++++++++to 0.0135592
Heightened Def Con from 0.0135592 ++++++++++++++++++++to 0.0135592
Heightened Def Con from 0.0135592 ++++++++++++++++++++to 0.0135592
Heightened Def Con from 0.0135592 ++++++++++++++++++++to 0.0135592
Heightened Def Con from 0.0135592 ++++++++++++++++++++to 0.0135592
Heightened Def Con from 0.0135592 ++++++++++++++++++++to 0.0135592
Heightened Def Con from 0.0135592 ++++++++++++++++++++to 0.0135592
Heightened Def Con from 0.0135592 ++++++++++++++++++++to 0.0135592
Heightened Def Con from 0.0135592 ++++++++++++++++++++to 0.0135592
Heightened Def Con from 0.0135592 ++++++++++++++++++++to 0.0135592
Heightened Def Con from 0.0135592 ++++++++++++++++++++to 0.0135592
Heightened Def Con from 0.0135592 ++++++++++++++++++++to 0.0135592
Heightened Def Con from 0.0135592 ++++++++++++++++++++to 0.0135592
Heightened Def Con from 0.0135592 ++++++++++++++++++++to 0.0135592
Heightened Def Con from 0.0135592 ++++++++++++++++++++to 0.0135592
Heightened Def Con from 0.0135592 ++++++++++++++++++++to 0.0135592
Heightened Def Con from 0.0135592 ++++++++++++++++++++to 0.0135592
Heightened Def Con from 0.0135592 ++++++++++++++++++++to 0.0135592
Heightened Def Con from 0.0135592 ++++++++++++++++++++to 0.0135592
Heightened Def Con from 0.0135592 ++++++++++++++++++++to 0.0135592
Heightened Def Con from 0.0135592 ++++++++++++++++++++to 0.0135592
Heightened Def Con from 0.0135592 ++++++++++++++++++++to 0.0135592
Heightened Def Con from 0.0135592 ++++++++++++++++++++to 0.0135592
Heightened Def Con from 0.0135592 ++++++++++++++++++++to 0.0135592
Heightened Def Con from 0.0135592 ++++++++++++++++++++to 0.0135592
Heightened Def Con from 0.0135592 ++++++++++++++++++++to 0.0135592
Heightened Def Con from 0.0135592 ++++++++++++++++++++to 0.0135592
Heightened Def Con from 0.0135592 ++++++++++++++++++++to 0.0135592
Heightened Def Con from 0.0135592 ++++++++++++++++++++to 0.0135592
Heightened Def Con from 0.0135592 ++++++++++++++++++++to 0.0135592
Heightened Def Con from 0.0135592 ++++++++++++++++++++to 0.0135592
Heightened Def Con from 0.0135592 ++++++++++++++++++++to 0.0135592
Heightened Def Con from 0.0135592 ++++++++++++++++++++to 0.0135592
Heightened Def Con from 0.0135592 ++++++++++++++++++++to 0.0135592
Heightened Def Con from 0.0135592 ++++++++++++++++++++to 0.0135592
Heightened Def Con from 0.0135592 ++++++++++++++++++++to 0.0135592
Heightened Def Con from 0.0135592 ++++++++++++++++++++to 0.0135592
Heightened Def Con from 0.0135592 ++++++++++++++++++++to 0.0135592
Heightened Def Con from 0.0135592 ++++++++++++++++++++to 0.0135592
Heightened Def Con from 0.0135592 ++++++++++++++++++++to 0.0135592
Heightened Def Con from 0.0135592 ++++++++++++++++++++to 0.0135592
Heightened Def Con from 0.0135592 ++++++++++++++++++++to 0.0135592
Heightened Def Con from 0.0135592 ++++++++++++++++++++to 0.0135592
Heightened Def Con from 0.0135592 ++++++++++++++++++++to 0.0135592
Heightened Def Con from 0.0135592 ++++++++++++++++++++to 0.0135592
Heightened Def Con from 0.0135592 ++++++++++++++++++++to 0.0135592
Heightened Def Con from 0.0135592 ++++++++++++++++++++to 0.0135592
Heightened Def Con from 0.0135592 ++++++++++++++++++++to 0.0135592
Heightened Def Con from 0.0135592 ++++++++++++++++++++to 0.0135592
Heightened Def Con from 0.0135592 ++++++++++++++++++++to 0.0135592
Heightened Def Con from 0.0135592 ++++++++++++++++++++to 0.0135592
Heightened Def Con from 0.0135592 ++++++++++++++++++++to 0.0135592
Heightened Def Con from 0.0135592 ++++++++++++++++++++to 0.0135592
Heightened Def Con from 0.0135592 ++++++++++++++++++++to 0.0135592
Heightened Def Con from 0.0135592 ++++++++++++++++++++to 0.0135592
Heightened Def Con from 0.0135592 ++++++++++++++++++++to 0.0135592
Heightened Def Con from 0.0135592 ++++++++++++++++++++to 0.0135592
Heightened Def Con from 0.0135592 ++++++++++++++++++++to 0.0135592
Heightened Def Con from 0.0135592 ++++++++++++++++++++to 0.0135592
Heightened Def Con from 0.0135592 ++++++++++++++++++++to 0.0135592
Heightened Def Con from 0.0135592 ++++++++++++++++++++to 0.0135592
Heightened Def Con from 0.0135592 ++++++++++++++++++++to 0.0135592
Heightened Def Con from 0.0135592 ++++++++++++++++++++to 0.0135592
Heightened Def Con from 0.0135592 ++++++++++++++++++++to 0.0135592
Heightened Def Con from 0.0135592 ++++++++++++++++++++to 0.0135592
Heightened Def Con from 0.0135592 ++++++++++++++++++++to 0.0135592
Heightened Def Con from 0.0135592 ++++++++++++++++++++to 0.0135592
Heightened Def Con from 0.0135592 ++++++++++++++++++++to 0.0135592
Heightened Def Con from 0.0135592 ++++++++++++++++++++to 0.0135592
Heightened Def Con from 0.0135592 ++++++++++++++++++++to 0.0135592
Heightened Def Con from 0.0135592 ++++++++++++++++++++to 0.0135592
Heightened Def Con from 0.0135592 ++++++++++++++++++++to 0.0135592
Heightened Def Con from 0.0135592 ++++++++++++++++++++to 0.0135592
Heightened Def Con from 0.0135592 ++++++++++++++++++++to 0.0135592
Heightened Def Con from 0.0135592 ++++++++++++++++++++to 0.0135592
Heightened Def Con from 0.0135592 ++++++++++++++++++++to 0.0135592
Heightened Def Con from 0.0135592 ++++++++++++++++++++to 0.0135592
Heightened Def Con from 0.0135592 ++++++++++++++++++++to 0.0135592
Heightened Def Con from 0.0135592 ++++++++++++++++++++to 0.0135592
Heightened Def Con from 0.0135592 ++++++++++++++++++++to 0.0135592
Heightened Def Con from 0.0135592 ++++++++++++++++++++to 0.0135592
Heightened Def Con from 0.0135592 ++++++++++++++++++++to 0.0135592
Heightened Def Con from 0.0135592 ++++++++++++++++++++to 0.0135592
Heightened Def Con from 0.0135592 ++++++++++++++++++++to 0.0135592
Heightened Def Con from 0.0135592 ++++++++++++++++++++to 0.0135592
Heightened Def Con from 0.0135592 ++++++++++++++++++++to 0.0135592
Heightened Def Con from 0.0135592 ++++++++++++++++++++to 0.0135592
Heightened Def Con from 0.0135592 ++++++++++++++++++++to 0.0135592
Heightened Def Con from 0.0135592 ++++++++++++++++++++to 0.0135592
Heightened Def Con from 0.0135592 ++++++++++++++++++++to 0.0135592
Heightened Def Con from 0.0135592 ++++++++++++++++++++to 0.0135592
Heightened Def Con from 0.0135592 ++++++++++++++++++++to 0.0135592
Heightened Def Con from 0.0135592 ++++++++++++++++++++to 0.0135592
Heightened Def Con from 0.0135592 ++++++++++++++++++++to 0.0135592
Heightened Def Con from 0.0135592 ++++++++++++++++++++to 0.0135592
Heightened Def Con from 0.0135592 ++++++++++++++++++++to 0.0135592
Heightened Def Con from 0.0135592 ++++++++++++++++++++to 0.0135592
Heightened Def Con from 0.0135592 ++++++++++++++++++++to 0.0135592
Heightened Def Con from 0.0135592 ++++++++++++++++++++to 0.0135592
Heightened Def Con from 0.0135592 ++++++++++++++++++++to 0.0135592
Heightened Def Con from 0.0135592 ++++++++++++++++++++to 0.0135592
Heightened Def Con from 0.0135592 ++++++++++++++++++++to 0.0135592
Heightened Def Con from 0.0135592 ++++++++++++++++++++to 0.0135592
Heightened Def Con from 0.0135592 ++++++++++++++++++++to 0.0135592
Heightened Def Con from 0.0135592 ++++++++++++++++++++to 0.0135592
Heightened Def Con from 0.0135592 ++++++++++++++++++++to 0.0135592
Heightened Def Con from 0.0135592 ++++++++++++++++++++to 0.0135592
Heightened Def Con from 0.0135592 ++++++++++++++++++++to 0.0135592
Heightened Def Con from 0.0135592 ++++++++++++++++++++to 0.0135592
Heightened Def Con from 0.0135592 ++++++++++++++++++++to 0.0135592
Heightened Def Con from 0.0135592 ++++++++++++++++++++to 0.0135592
Heightened Def Con from 0.0135592 ++++++++++++++++++++to 0.0135592
Heightened Def Con from 0.0135592 ++++++++++++++++++++to 0.0135592
Heightened Def Con from 0.0135592 ++++++++++++++++++++to 0.0135592
Heightened Def Con from 0.0135592 ++++++++++++++++++++to 0.0135592
Heightened Def Con from 0.0135592 ++++++++++++++++++++to 0.0135592
Heightened Def Con from 0.0135592 ++++++++++++++++++++to 0.0135592
Heightened Def Con from 0.0135592 ++++++++++++++++++++to 0.0135592
Heightened Def Con from 0.0135592 ++++++++++++++++++++to 0.0135592
Heightened Def Con from 0.0135592 ++++++++++++++++++++to 0.0135592
Heightened Def Con from 0.0135592 ++++++++++++++++++++to 0.0135592
Heightened Def Con from 0.0135592 ++++++++++++++++++++to 0.0135592
Heightened Def Con from 0.0135592 ++++++++++++++++++++to 0.0135592
Heightened Def Con from 0.0135592 ++++++++++++++++++++to 0.0135592
Heightened Def Con from 0.0135592 ++++++++++++++++++++to 0.0135592
Heightened Def Con from 0.0135592 ++++++++++++++++++++to 0.0135592
Heightened Def Con from 0.0135592 ++++++++++++++++++++to 0.0135592
Heightened Def Con from 0.0135592 ++++++++++++++++++++to 0.0135592
Heightened Def Con from 0.0135592 ++++++++++++++++++++to 0.0135592
Heightened Def Con from 0.0135592 ++++++++++++++++++++to 0.0135592
Heightened Def Con from 0.0135592 ++++++++++++++++++++to 0.0135592
Heightened Def Con from 0.0135592 ++++++++++++++++++++to 0.0135592
Heightened Def Con from 0.0135592 ++++++++++++++++++++to 0.0135592
Heightened Def Con from 0.0135592 ++++++++++++++++++++to 0.0135592
Heightened Def Con from 0.0135592 ++++++++++++++++++++to 0.0135592
Heightened Def Con from 0.0135592 ++++++++++++++++++++to 0.0135592
Heightened Def Con from 0.0135592 ++++++++++++++++++++to 0.0135592
Heightened Def Con from 0.0135592 ++++++++++++++++++++to 0.0135592
Heightened Def Con from 0.0135592 ++++++++++++++++++++to 0.0135592
Heightened Def Con from 0.0135592 ++++++++++++++++++++to 0.0135592
Heightened Def Con from 0.0135592 ++++++++++++++++++++to 0.0135592
Heightened Def Con from 0.0135592 ++++++++++++++++++++to 0.0135592
Heightened Def Con from 0.0135592 ++++++++++++++++++++to 0.0135592
Heightened Def Con from 0.0135592 ++++++++++++++++++++to 0.0135592
Heightened Def Con from 0.0135592 ++++++++++++++++++++to 0.0135592
Heightened Def Con from 0.0135592 ++++++++++++++++++++to 0.0135592
Heightened Def Con from 0.0135592 ++++++++++++++++++++to 0.0135592
Heightened Def Con from 0.0135592 ++++++++++++++++++++to 0.0135592
Heightened Def Con from 0.0135592 ++++++++++++++++++++to 0.0135592
Heightened Def Con from 0.0135592 ++++++++++++++++++++to 0.0135592
Heightened Def Con from 0.0135592 ++++++++++++++++++++to 0.0135592
Heightened Def Con from 0.0135592 ++++++++++++++++++++to 0.0135592
Heightened Def Con from 0.0135592 ++++++++++++++++++++to 0.0135592
Heightened Def Con from 0.0135592 ++++++++++++++++++++to 0.0135592
Heightened Def Con from 0.0135592 ++++++++++++++++++++to 0.0135592
Heightened Def Con from 0.0135592 ++++++++++++++++++++to 0.0135592
Heightened Def Con from 0.0135592 ++++++++++++++++++++to 0.0135592
Heightened Def Con from 0.0135592 ++++++++++++++++++++to 0.0135592
Heightened Def Con from 0.0135592 ++++++++++++++++++++to 0.0135592
Heightened Def Con from 0.0135592 ++++++++++++++++++++to 0.0135592
Heightened Def Con from 0.0135592 ++++++++++++++++++++to 0.0135592
Heightened Def Con from 0.0135592 ++++++++++++++++++++to 0.0135592
Heightened Def Con from 0.0135592 ++++++++++++++++++++to 0.0135592
Heightened Def Con from 0.0135592 ++++++++++++++++++++to 0.0135592
Heightened Def Con from 0.0135592 ++++++++++++++++++++to 0.0135592
Heightened Def Con from 0.0135592 ++++++++++++++++++++to 0.0135592
Heightened Def Con from 0.0135592 ++++++++++++++++++++to 0.0135592
Heightened Def Con from 0.0135592 ++++++++++++++++++++to 0.0135592
Heightened Def Con from 0.0135592 ++++++++++++++++++++to 0.0135592
Heightened Def Con from 0.0135592 ++++++++++++++++++++to 0.0135592
Heightened Def Con from 0.0135592 ++++++++++++++++++++to 0.0135592
Heightened Def Con from 0.0135592 ++++++++++++++++++++to 0.0135592
Heightened Def Con from 0.0135592 ++++++++++++++++++++to 0.0135592
Heightened Def Con from 0.0135592 ++++++++++++++++++++to 0.0135592
Heightened Def Con from 0.0135592 ++++++++++++++++++++to 0.0135592
Heightened Def Con from 0.0135592 ++++++++++++++++++++to 0.0135592
Heightened Def Con from 0.0135592 ++++++++++++++++++++to 0.0135592
Heightened Def Con from 0.0135592 ++++++++++++++++++++to 0.0135592
Heightened Def Con from 0.0135592 ++++++++++++++++++++to 0.0135592
Heightened Def Con from 0.0135592 ++++++++++++++++++++to 0.0135592
Heightened Def Con from 0.0135592 ++++++++++++++++++++to 0.0135592
Heightened Def Con from 0.0135592 ++++++++++++++++++++to 0.0135592
Heightened Def Con from 0.0135592 ++++++++++++++++++++to 0.0135592
Heightened Def Con from 0.0135592 ++++++++++++++++++++to 0.0135592
Heightened Def Con from 0.0135592 ++++++++++++++++++++to 0.0135592
Heightened Def Con from 0.0135592 ++++++++++++++++++++to 0.0135592
Heightened Def Con from 0.0135592 ++++++++++++++++++++to 0.0135592
Heightened Def Con from 0.0135592 ++++++++++++++++++++to 0.0135592
Heightened Def Con from 0.0135592 ++++++++++++++++++++to 0.0135592
Heightened Def Con from 0.0135592 ++++++++++++++++++++to 0.0135592
Heightened Def Con from 0.0135592 ++++++++++++++++++++to 0.0135592
Heightened Def Con from 0.0135592 ++++++++++++++++++++to 0.0135592
Heightened Def Con from 0.0135592 ++++++++++++++++++++to 0.0135592
Heightened Def Con from 0.0135592 ++++++++++++++++++++to 0.0135592
Heightened Def Con from 0.0135592 ++++++++++++++++++++to 0.0135592
Heightened Def Con from 0.0135592 ++++++++++++++++++++to 0.0135592
Heightened Def Con from 0.0135592 ++++++++++++++++++++to 0.0135592
Heightened Def Con from 0.0135592 ++++++++++++++++++++to 0.0135592
Heightened Def Con from 0.0135592 ++++++++++++++++++++to 0.0135592
Heightened Def Con from 0.0135592 ++++++++++++++++++++to 0.0135592
Heightened Def Con from 0.0135592 ++++++++++++++++++++to 0.0135592
Heightened Def Con from 0.0135592 ++++++++++++++++++++to 0.0135592
[...]
Heightened Def Con from 0.013577 ++++++++++++++++++++to 0.013577
Heightened Def Con from 0.013577 ++++++++++++++++++++to 0.013577
Heightened Def Con from 0.013577 ++++++++++++++++++++to 0.013577
Heightened Def Con from 0.013577 ++++++++++++++++++++to 0.013577
Heightened Def Con from 0.013577 ++++++++++++++++++++to 0.013577
Heightened Def Con from 0.013577 ++++++++++++++++++++to 0.013577
Heightened Def Con from 0.013577 ++++++++++++++++++++to 0.013577
Heightened Def Con from 0.013577 ++++++++++++++++++++to 0.013577
Heightened Def Con from 0.013577 ++++++++++++++++++++to 0.013577
Heightened Def Con from 0.013577 ++++++++++++++++++++to 0.013577
Heightened Def Con from 0.013577 ++++++++++++++++++++to 0.013577
Heightened Def Con from 0.013577 ++++++++++++++++++++to 0.013577
Heightened Def Con from 0.013577 ++++++++++++++++++++to 0.013577
Heightened Def Con from 0.013577 ++++++++++++++++++++to 0.013577
Heightened Def Con from 0.013577 ++++++++++++++++++++to 0.013577
Heightened Def Con from 0.013577 ++++++++++++++++++++to 0.013577
Heightened Def Con from 0.013577 ++++++++++++++++++++to 0.013577
Heightened Def Con from 0.013577 ++++++++++++++++++++to 0.013577
Heightened Def Con from 0.013577 ++++++++++++++++++++to 0.013577
Heightened Def Con from 0.013577 ++++++++++++++++++++to 0.013577
Heightened Def Con from 0.013577 ++++++++++++++++++++to 0.013577
Heightened Def Con from 0.013577 ++++++++++++++++++++to 0.013577
Heightened Def Con from 0.013577 ++++++++++++++++++++to 0.013577
Heightened Def Con from 0.013577 ++++++++++++++++++++to 0.013577
Heightened Def Con from 0.013577 ++++++++++++++++++++to 0.013577
Heightened Def Con from 0.013577 ++++++++++++++++++++to 0.013577
Heightened Def Con from 0.013577 ++++++++++++++++++++to 0.013577
Heightened Def Con from 0.013577 ++++++++++++++++++++to 0.013577
Heightened Def Con from 0.013577 ++++++++++++++++++++to 0.013577
Heightened Def Con from 0.013577 ++++++++++++++++++++to 0.013577
Heightened Def Con from 0.013577 ++++++++++++++++++++to 0.013577
Heightened Def Con from 0.013577 ++++++++++++++++++++to 0.013577
Heightened Def Con from 0.013577 ++++++++++++++++++++to 0.013577
Heightened Def Con from 0.013577 ++++++++++++++++++++to 0.013577
Heightened Def Con from 0.013577 ++++++++++++++++++++to 0.013577
Heightened Def Con from 0.013577 ++++++++++++++++++++to 0.013577
Heightened Def Con from 0.013577 ++++++++++++++++++++to 0.013577
Heightened Def Con from 0.013577 ++++++++++++++++++++to 0.013577
Heightened Def Con from 0.013577 ++++++++++++++++++++to 0.013577
Heightened Def Con from 0.013577 ++++++++++++++++++++to 0.013577
Heightened Def Con from 0.013577 ++++++++++++++++++++to 0.013577
Heightened Def Con from 0.013577 ++++++++++++++++++++to 0.013577
Heightened Def Con from 0.013577 ++++++++++++++++++++to 0.013577
Heightened Def Con from 0.013577 ++++++++++++++++++++to 0.013577
Heightened Def Con from 0.013577 ++++++++++++++++++++to 0.013577
Heightened Def Con from 0.013577 ++++++++++++++++++++to 0.013577
Heightened Def Con from 0.013577 ++++++++++++++++++++to 0.013577
Heightened Def Con from 0.013577 ++++++++++++++++++++to 0.013577
Heightened Def Con from 0.013577 ++++++++++++++++++++to 0.013577
Heightened Def Con from 0.013577 ++++++++++++++++++++to 0.013577
Heightened Def Con from 0.013577 ++++++++++++++++++++to 0.013577
Heightened Def Con from 0.013577 ++++++++++++++++++++to 0.013577
Heightened Def Con from 0.013577 ++++++++++++++++++++to 0.013577
Heightened Def Con from 0.013577 ++++++++++++++++++++to 0.013577
Heightened Def Con from 0.013577 ++++++++++++++++++++to 0.013577
Heightened Def Con from 0.013577 ++++++++++++++++++++to 0.013577
Heightened Def Con from 0.013577 ++++++++++++++++++++to 0.013577
Heightened Def Con from 0.013577 ++++++++++++++++++++to 0.013577
Heightened Def Con from 0.013577 ++++++++++++++++++++to 0.013577
Heightened Def Con from 0.013577 ++++++++++++++++++++to 0.013577
Heightened Def Con from 0.013577 ++++++++++++++++++++to 0.013577
Heightened Def Con from 0.013577 ++++++++++++++++++++to 0.013577
Heightened Def Con from 0.013577 ++++++++++++++++++++to 0.013577
Heightened Def Con from 0.013577 ++++++++++++++++++++to 0.013577
Heightened Def Con from 0.013577 ++++++++++++++++++++to 0.013577
Heightened Def Con from 0.013577 ++++++++++++++++++++to 0.013577
Heightened Def Con from 0.013577 ++++++++++++++++++++to 0.013577
Heightened Def Con from 0.013577 ++++++++++++++++++++to 0.013577
Heightened Def Con from 0.013577 ++++++++++++++++++++to 0.013577
Heightened Def Con from 0.013577 ++++++++++++++++++++to 0.013577
Heightened Def Con from 0.013577 ++++++++++++++++++++to 0.013577
Heightened Def Con from 0.013577 ++++++++++++++++++++to 0.013577
Heightened Def Con from 0.013577 ++++++++++++++++++++to 0.013577
Heightened Def Con from 0.013577 ++++++++++++++++++++to 0.013577
Heightened Def Con from 0.013577 ++++++++++++++++++++to 0.013577
Heightened Def Con from 0.013577 ++++++++++++++++++++to 0.013577
Heightened Def Con from 0.013577 ++++++++++++++++++++to 0.013577
Heightened Def Con from 0.013577 ++++++++++++++++++++to 0.013577
Heightened Def Con from 0.013577 ++++++++++++++++++++to 0.013577
Heightened Def Con from 0.013577 ++++++++++++++++++++to 0.013577
Heightened Def Con from 0.013577 ++++++++++++++++++++to 0.013577
Heightened Def Con from 0.013577 ++++++++++++++++++++to 0.013577
Heightened Def Con from 0.013577 ++++++++++++++++++++to 0.013577
Heightened Def Con from 0.013577 ++++++++++++++++++++to 0.013577
Heightened Def Con from 0.013577 ++++++++++++++++++++to 0.013577
Heightened Def Con from 0.013577 ++++++++++++++++++++to 0.013577
Heightened Def Con from 0.013577 ++++++++++++++++++++to 0.013577
Heightened Def Con from 0.013577 ++++++++++++++++++++to 0.013577
Heightened Def Con from 0.013577 ++++++++++++++++++++to 0.013577
Heightened Def Con from 0.013577 ++++++++++++++++++++to 0.013577
Heightened Def Con from 0.013577 ++++++++++++++++++++to 0.013577
Heightened Def Con from 0.013577 ++++++++++++++++++++to 0.013577
Heightened Def Con from 0.013577 ++++++++++++++++++++to 0.013577
Heightened Def Con from 0.013577 ++++++++++++++++++++to 0.013577
Heightened Def Con from 0.013577 ++++++++++++++++++++to 0.013577
Heightened Def Con from 0.013577 ++++++++++++++++++++to 0.013577
Heightened Def Con from 0.013577 ++++++++++++++++++++to 0.013577
Heightened Def Con from 0.013577 ++++++++++++++++++++to 0.013577
Heightened Def Con from 0.013577 ++++++++++++++++++++to 0.013577
Heightened Def Con from 0.013577 ++++++++++++++++++++to 0.013577
Heightened Def Con from 0.013577 ++++++++++++++++++++to 0.013577
Heightened Def Con from 0.013577 ++++++++++++++++++++to 0.013577
Heightened Def Con from 0.013577 ++++++++++++++++++++to 0.013577
Heightened Def Con from 0.013577 ++++++++++++++++++++to 0.013577
Heightened Def Con from 0.013577 ++++++++++++++++++++to 0.013577
Heightened Def Con from 0.013577 ++++++++++++++++++++to 0.013577
Heightened Def Con from 0.013577 ++++++++++++++++++++to 0.013577
Heightened Def Con from 0.013577 ++++++++++++++++++++to 0.013577
Heightened Def Con from 0.013577 ++++++++++++++++++++to 0.013577
Heightened Def Con from 0.013577 ++++++++++++++++++++to 0.013577
Heightened Def Con from 0.013577 ++++++++++++++++++++to 0.013577
Heightened Def Con from 0.013577 ++++++++++++++++++++to 0.013577
Heightened Def Con from 0.013577 ++++++++++++++++++++to 0.013577
Heightened Def Con from 0.013577 ++++++++++++++++++++to 0.013577
Heightened Def Con from 0.013577 ++++++++++++++++++++to 0.013577
Heightened Def Con from 0.013577 ++++++++++++++++++++to 0.013577
Heightened Def Con from 0.013577 ++++++++++++++++++++to 0.013577
Heightened Def Con from 0.013577 ++++++++++++++++++++to 0.013577
Heightened Def Con from 0.013577 ++++++++++++++++++++to 0.013577
Heightened Def Con from 0.013577 ++++++++++++++++++++to 0.013577
Heightened Def Con from 0.013577 ++++++++++++++++++++to 0.013577
Heightened Def Con from 0.013577 ++++++++++++++++++++to 0.013577
Heightened Def Con from 0.013577 ++++++++++++++++++++to 0.013577
Heightened Def Con from 0.013577 ++++++++++++++++++++to 0.013577
Heightened Def Con from 0.013577 ++++++++++++++++++++to 0.013577
Heightened Def Con from 0.013577 ++++++++++++++++++++to 0.013577
Heightened Def Con from 0.013577 ++++++++++++++++++++to 0.013577
Heightened Def Con from 0.013577 ++++++++++++++++++++to 0.013577
Heightened Def Con from 0.013577 ++++++++++++++++++++to 0.013577
Heightened Def Con from 0.013577 ++++++++++++++++++++to 0.013577
Heightened Def Con from 0.013577 ++++++++++++++++++++to 0.013577
Heightened Def Con from 0.013577 ++++++++++++++++++++to 0.013577
Heightened Def Con from 0.013577 ++++++++++++++++++++to 0.013577
Heightened Def Con from 0.013577 ++++++++++++++++++++to 0.013577
Heightened Def Con from 0.013577 ++++++++++++++++++++to 0.013577
Heightened Def Con from 0.013577 ++++++++++++++++++++to 0.013577
Heightened Def Con from 0.013577 ++++++++++++++++++++to 0.013577
Heightened Def Con from 0.013577 ++++++++++++++++++++to 0.013577
Heightened Def Con from 0.013577 ++++++++++++++++++++to 0.013577
Heightened Def Con from 0.013577 ++++++++++++++++++++to 0.013577
Heightened Def Con from 0.013577 ++++++++++++++++++++to 0.013577
Heightened Def Con from 0.013577 ++++++++++++++++++++to 0.013577
Heightened Def Con from 0.013577 ++++++++++++++++++++to 0.013577
Heightened Def Con from 0.013577 ++++++++++++++++++++to 0.013577
Heightened Def Con from 0.013577 ++++++++++++++++++++to 0.013577
Heightened Def Con from 0.013577 ++++++++++++++++++++to 0.013577
Heightened Def Con from 0.013577 ++++++++++++++++++++to 0.013577
Heightened Def Con from 0.013577 ++++++++++++++++++++to 0.013577
Heightened Def Con from 0.013577 ++++++++++++++++++++to 0.013577
Heightened Def Con from 0.013577 ++++++++++++++++++++to 0.013577
Heightened Def Con from 0.013577 ++++++++++++++++++++to 0.013577
Heightened Def Con from 0.013577 ++++++++++++++++++++to 0.013577
Heightened Def Con from 0.013577 ++++++++++++++++++++to 0.013577
Heightened Def Con from 0.013577 ++++++++++++++++++++to 0.013577
Heightened Def Con from 0.013577 ++++++++++++++++++++to 0.013577
Heightened Def Con from 0.013577 ++++++++++++++++++++to 0.013577
Heightened Def Con from 0.013577 ++++++++++++++++++++to 0.013577
Heightened Def Con from 0.013577 ++++++++++++++++++++to 0.013577
Heightened Def Con from 0.013577 ++++++++++++++++++++to 0.013577
Heightened Def Con from 0.013577 ++++++++++++++++++++to 0.013577
Heightened Def Con from 0.013577 ++++++++++++++++++++to 0.013577
Heightened Def Con from 0.013577 ++++++++++++++++++++to 0.013577
Heightened Def Con from 0.013577 ++++++++++++++++++++to 0.013577
Heightened Def Con from 0.013577 ++++++++++++++++++++to 0.013577
Heightened Def Con from 0.013577 ++++++++++++++++++++to 0.013577
Heightened Def Con from 0.013577 ++++++++++++++++++++to 0.013577
Heightened Def Con from 0.013577 ++++++++++++++++++++to 0.013577
Heightened Def Con from 0.013577 ++++++++++++++++++++to 0.013577
Heightened Def Con from 0.013577 ++++++++++++++++++++to 0.013577
Heightened Def Con from 0.013577 ++++++++++++++++++++to 0.013577
Heightened Def Con from 0.013577 ++++++++++++++++++++to 0.013577
Heightened Def Con from 0.013577 ++++++++++++++++++++to 0.013577
Heightened Def Con from 0.013577 ++++++++++++++++++++to 0.013577
Heightened Def Con from 0.013577 ++++++++++++++++++++to 0.013577
Heightened Def Con from 0.013577 ++++++++++++++++++++to 0.013577
Heightened Def Con from 0.013577 ++++++++++++++++++++to 0.013577
Heightened Def Con from 0.013577 ++++++++++++++++++++to 0.013577
Heightened Def Con from 0.013577 ++++++++++++++++++++to 0.013577
Heightened Def Con from 0.013577 ++++++++++++++++++++to 0.013577
Heightened Def Con from 0.013577 ++++++++++++++++++++to 0.013577
Heightened Def Con from 0.013577 ++++++++++++++++++++to 0.013577
Heightened Def Con from 0.013577 ++++++++++++++++++++to 0.013577
Heightened Def Con from 0.013577 ++++++++++++++++++++to 0.013577
Heightened Def Con from 0.013577 ++++++++++++++++++++to 0.013577
Heightened Def Con from 0.013577 ++++++++++++++++++++to 0.013577
Heightened Def Con from 0.013577 ++++++++++++++++++++to 0.013577
Heightened Def Con from 0.013577 ++++++++++++++++++++to 0.013577
Heightened Def Con from 0.013577 ++++++++++++++++++++to 0.013577
Heightened Def Con from 0.013577 ++++++++++++++++++++to 0.013577
Heightened Def Con from 0.013577 ++++++++++++++++++++to 0.013577
Heightened Def Con from 0.013577 ++++++++++++++++++++to 0.013577
Heightened Def Con from 0.013577 ++++++++++++++++++++to 0.013577
Heightened Def Con from 0.013577 ++++++++++++++++++++to 0.013577
Heightened Def Con from 0.013577 ++++++++++++++++++++to 0.013577
Heightened Def Con from 0.013577 ++++++++++++++++++++to 0.013577
Heightened Def Con from 0.013577 ++++++++++++++++++++to 0.013577
Heightened Def Con from 0.013577 ++++++++++++++++++++to 0.013577
Heightened Def Con from 0.013577 ++++++++++++++++++++to 0.013577
Heightened Def Con from 0.013577 ++++++++++++++++++++to 0.013577
Heightened Def Con from 0.013577 ++++++++++++++++++++to 0.013577
Heightened Def Con from 0.013577 ++++++++++++++++++++to 0.013577
Heightened Def Con from 0.013577 ++++++++++++++++++++to 0.013577
Heightened Def Con from 0.013577 ++++++++++++++++++++to 0.013577
Heightened Def Con from 0.013577 ++++++++++++++++++++to 0.013577
Heightened Def Con from 0.013577 ++++++++++++++++++++to 0.013577
Heightened Def Con from 0.013577 ++++++++++++++++++++to 0.013577
Heightened Def Con from 0.013577 ++++++++++++++++++++to 0.013577
Heightened Def Con from 0.013577 ++++++++++++++++++++to 0.013577
Heightened Def Con from 0.013577 ++++++++++++++++++++to 0.013577
Heightened Def Con from 0.013577 ++++++++++++++++++++to 0.013577
Heightened Def Con from 0.013577 ++++++++++++++++++++to 0.013577
Heightened Def Con from 0.013577 ++++++++++++++++++++to 0.013577
Heightened Def Con from 0.013577 ++++++++++++++++++++to 0.013577
Heightened Def Con from 0.013577 ++++++++++++++++++++to 0.013577
Heightened Def Con from 0.013577 ++++++++++++++++++++to 0.013577
Heightened Def Con from 0.013577 ++++++++++++++++++++to 0.013577
Heightened Def Con from 0.013577 ++++++++++++++++++++to 0.013577
Heightened Def Con from 0.013577 ++++++++++++++++++++to 0.013577
Heightened Def Con from 0.013577 ++++++++++++++++++++to 0.013577
Heightened Def Con from 0.013577 ++++++++++++++++++++to 0.013577
Heightened Def Con from 0.013577 ++++++++++++++++++++to 0.013577
Heightened Def Con from 0.013577 ++++++++++++++++++++to 0.013577
Heightened Def Con from 0.013577 ++++++++++++++++++++to 0.013577
Heightened Def Con from 0.013577 ++++++++++++++++++++to 0.013577
Heightened Def Con from 0.013577 ++++++++++++++++++++to 0.013577
Heightened Def Con from 0.013577 ++++++++++++++++++++to 0.013577
Heightened Def Con from 0.013577 ++++++++++++++++++++to 0.013577
Heightened Def Con from 0.013577 ++++++++++++++++++++to 0.013577
Heightened Def Con from 0.013577 ++++++++++++++++++++to 0.013577
Heightened Def Con from 0.013577 ++++++++++++++++++++to 0.013577
Heightened Def Con from 0.013577 ++++++++++++++++++++to 0.013577
Heightened Def Con from 0.013577 ++++++++++++++++++++to 0.013577
Heightened Def Con from 0.013577 ++++++++++++++++++++to 0.013577
Heightened Def Con from 0.013577 ++++++++++++++++++++to 0.013577
Heightened Def Con from 0.013577 ++++++++++++++++++++to 0.013577
Heightened Def Con from 0.013577 ++++++++++++++++++++to 0.013577
Heightened Def Con from 0.013577 ++++++++++++++++++++to 0.013577
Heightened Def Con from 0.013577 ++++++++++++++++++++to 0.013577
Heightened Def Con from 0.013577 ++++++++++++++++++++to 0.013577
Heightened Def Con from 0.013577 ++++++++++++++++++++to 0.013577
Heightened Def Con from 0.013577 ++++++++++++++++++++to 0.013577
Heightened Def Con from 0.013577 ++++++++++++++++++++to 0.013577
Heightened Def Con from 0.013577 ++++++++++++++++++++to 0.013577
Heightened Def Con from 0.013577 ++++++++++++++++++++to 0.013577
Heightened Def Con from 0.013577 ++++++++++++++++++++to 0.013577
Heightened Def Con from 0.013577 ++++++++++++++++++++to 0.013577
Heightened Def Con from 0.013577 ++++++++++++++++++++to 0.013577
Heightened Def Con from 0.013577 ++++++++++++++++++++to 0.013577
Heightened Def Con from 0.013577 ++++++++++++++++++++to 0.013577
Heightened Def Con from 0.013577 ++++++++++++++++++++to 0.013577
Heightened Def Con from 0.013577 ++++++++++++++++++++to 0.013577
Heightened Def Con from 0.013577 ++++++++++++++++++++to 0.013577
Heightened Def Con from 0.013577 ++++++++++++++++++++to 0.013577
Heightened Def Con from 0.013577 ++++++++++++++++++++to 0.013577
Heightened Def Con from 0.013577 ++++++++++++++++++++to 0.013577
Heightened Def Con from 0.013577 ++++++++++++++++++++to 0.013577
Heightened Def Con from 0.013577 ++++++++++++++++++++to 0.013577
Heightened Def Con from 0.013577 ++++++++++++++++++++to 0.013577
Heightened Def Con from 0.013577 ++++++++++++++++++++to 0.013577
Heightened Def Con from 0.013577 ++++++++++++++++++++to 0.013577
Heightened Def Con from 0.013577 ++++++++++++++++++++to 0.013577
Heightened Def Con from 0.013577 ++++++++++++++++++++to 0.013577
Heightened Def Con from 0.013577 ++++++++++++++++++++to 0.013577
Heightened Def Con from 0.013577 ++++++++++++++++++++to 0.013577
Heightened Def Con from 0.013577 ++++++++++++++++++++to 0.013577
Heightened Def Con from 0.013577 ++++++++++++++++++++to 0.013577
Heightened Def Con from 0.013577 ++++++++++++++++++++to 0.013577
Heightened Def Con from 0.013577 ++++++++++++++++++++to 0.013577
Heightened Def Con from 0.013577 ++++++++++++++++++++to 0.013577
Heightened Def Con from 0.013577 ++++++++++++++++++++to 0.013577
Heightened Def Con from 0.013577 ++++++++++++++++++++to 0.013577
Heightened Def Con from 0.013577 ++++++++++++++++++++to 0.013577
Heightened Def Con from 0.013577 ++++++++++++++++++++to 0.013577
Heightened Def Con from 0.013577 ++++++++++++++++++++to 0.013577
Heightened Def Con from 0.013577 ++++++++++++++++++++to 0.013577
Heightened Def Con from 0.013577 ++++++++++++++++++++to 0.013577
Heightened Def Con from 0.013577 ++++++++++++++++++++to 0.013577
Heightened Def Con from 0.013577 ++++++++++++++++++++to 0.013577
Heightened Def Con from 0.013577 ++++++++++++++++++++to 0.013577
Heightened Def Con from 0.013577 ++++++++++++++++++++to 0.013577
Heightened Def Con from 0.013577 ++++++++++++++++++++to 0.013577
Heightened Def Con from 0.013577 ++++++++++++++++++++to 0.013577
Heightened Def Con from 0.013577 ++++++++++++++++++++to 0.013577
Heightened Def Con from 0.013577 ++++++++++++++++++++to 0.013577
Heightened Def Con from 0.013577 ++++++++++++++++++++to 0.013577
Heightened Def Con from 0.013577 ++++++++++++++++++++to 0.013577
Heightened Def Con from 0.013577 ++++++++++++++++++++to 0.013577
Heightened Def Con from 0.013577 ++++++++++++++++++++to 0.013577
Heightened Def Con from 0.013577 ++++++++++++++++++++to 0.013577
Heightened Def Con from 0.013577 ++++++++++++++++++++to 0.013577
Heightened Def Con from 0.013577 ++++++++++++++++++++to 0.013577
Heightened Def Con from 0.013577 ++++++++++++++++++++to 0.013577
Heightened Def Con from 0.013577 ++++++++++++++++++++to 0.013577
Heightened Def Con from 0.013577 ++++++++++++++++++++to 0.013577
Heightened Def Con from 0.013577 ++++++++++++++++++++to 0.013577
Heightened Def Con from 0.013577 ++++++++++++++++++++to 0.013577
Heightened Def Con from 0.013577 ++++++++++++++++++++to 0.013577
Heightened Def Con from 0.013577 ++++++++++++++++++++to 0.013577
Heightened Def Con from 0.013577 ++++++++++++++++++++to 0.013577
Heightened Def Con from 0.013577 ++++++++++++++++++++to 0.013577
Heightened Def Con from 0.013577 ++++++++++++++++++++to 0.013577
Heightened Def Con from 0.013577 +++++++++++to 0.013577

Date: Wed Sep 12 11:04:29 2018
Total elapsed time: 249.439 seconds.

tnom = 27
temp = 27
method = modified trap
totiter = 36462090
traniter = 36460444
tranpoints = 3650334
accept = 784101
rejected = 3210548
matrix size = 47
fillins = 41
solver = Normal
Matrix Compiler1: 3.83 KB object code size  1.5/0.7/[0.3]
Matrix Compiler2: 4.61 KB object code size  0.5/0.7/[0.4]

